40

C     -3.796706    2.859510   -0.726916
C     -3.217380    2.815920   -1.979388
C     -2.073642    2.053286   -1.778438
C     -1.047701    1.633360   -2.642107
C     -0.931017    1.897210   -3.971718
N      0.231535    1.266535   -4.338482
C      0.802023    0.633425   -3.239590
C      0.011241    0.843715   -2.125876
C      0.213283    0.375809   -0.773698
C      1.321008   -0.463484   -0.181259
C      2.428741   -0.979605   -0.865992
N      3.440325   -1.738945   -0.353063
C      3.418450   -2.058829    0.964902
C      2.379373   -1.616075    1.770661
C      1.350515   -0.831263    1.199559
C      0.246124   -0.324654    1.913631
C     -0.035490   -0.486956    3.247619
O     -1.197253    0.157452    3.558218
C     -1.659291    0.735353    2.410756
C     -0.803971    0.466365    1.370211
C     -0.906556    0.867781    0.036172
C     -1.964324    1.654120   -0.469885
O     -3.055418    2.165985    0.190700
C      4.533780   -2.886794    1.493899
N      4.510909   -3.202793    2.798912
C      5.536110   -3.945017    3.210702
N      6.542124   -4.380959    2.459255
C      6.461634   -4.008439    1.185124
N      5.497167   -3.271690    0.645628
H     -4.694260    3.319345   -0.336712
H     -3.590122    3.276267   -2.881896
H     -1.530591    2.449963   -4.681525
H      0.621960    1.259916   -5.272482
H      1.722873    0.105191   -3.416735
H      2.577390   -0.805297   -1.920410
H      2.362296   -1.872205    2.824882
H      0.441736   -0.993221    4.074582
H     -2.584532    1.284572    2.515791
H      5.552766   -4.220822    4.259796
H      7.256620   -4.335855    0.523918
