42

C      1.787468   -3.668653   -5.578689
C      1.246681   -4.963723   -5.048828
C      0.827784   -4.784699   -3.788748
C      0.238295   -5.757756   -2.895454
C     -0.119211   -5.374486   -1.653741
C      0.103321   -4.008162   -1.272688
S     -0.309608   -3.430533    0.259409
C      0.235923   -1.815330   -0.053838
C      0.743139   -1.738367   -1.371048
C      1.237486   -0.486732   -1.809189
C      1.231330    0.637151   -0.984273
C      0.737930    0.578983    0.309927
C      0.769093    1.778844    1.089050
C      0.313122    1.918201    2.424278
C      0.396540    3.198257    3.119819
C      0.865224    4.449071    2.750167
C      0.684420    5.309873    3.860330
C      0.117032    4.539683    4.843790
O     -0.058606    3.269207    4.404855
C     -0.193243    0.698971    2.918210
C     -0.707395    0.523228    4.184337
S     -1.237175   -1.075212    4.469074
C     -0.785362   -1.565483    2.892504
C     -0.237678   -0.550324    2.139308
C      0.225736   -0.667669    0.799761
C      0.659694   -3.006526   -2.056544
C      1.049971   -3.389177   -3.386118
C      1.605465   -2.733071   -4.414738
H      2.844315   -3.762634   -5.845195
H      1.216419   -3.329443   -6.447952
H      1.209120   -5.885029   -5.609332
H      0.093157   -6.776482   -3.235695
H     -0.564109   -6.076732   -0.956407
H      1.637395   -0.373873   -2.810788
H      1.627976    1.566711   -1.389568
H      1.182605    2.668233    0.609350
H      1.289307    4.716261    1.793019
H      0.936099    6.358324    3.933213
H     -0.205368    4.733373    5.857308
H     -0.817714    1.229903    4.991742
H     -0.970828   -2.597296    2.652687
H      1.895281   -1.698156   -4.453262
