29

N     -2.669738   -3.305177    0.024762
C     -2.574666   -2.322749    0.634286
C     -2.472319   -1.131904    1.408191
C     -2.658884   -1.164093    2.773814
N     -2.574273   -0.076596    3.568199
C     -2.295385    1.078573    2.949432
N     -2.087767    1.227294    1.633543
C     -2.179863    0.110308    0.869528
C     -1.952197    0.334589   -0.557475
C     -3.023241    0.398771   -1.476204
C     -2.804234    0.597365   -2.840667
C     -1.511304    0.742271   -3.344097
C     -0.467745    0.684401   -2.422301
O      0.846720    0.805799   -2.741035
C      1.554315    0.696440   -1.585925
N      2.897708    0.770883   -1.548328
C      3.403461    0.640922   -0.304292
C      2.663176    0.448290    0.853969
C      1.272508    0.375783    0.765957
C      0.689785    0.503044   -0.508212
C     -0.633709    0.491393   -1.053100
H     -2.889941   -2.090472    3.295684
H     -2.229073    1.969212    3.565369
H     -4.048400    0.297860   -1.121511
H     -3.651383    0.640604   -3.522519
H     -1.319482    0.895429   -4.399961
H      4.488804    0.700309   -0.253182
H      3.161877    0.359095    1.813794
H      0.671987    0.236034    1.658034
