28

Cl    -4.485967    4.187532   -2.296951
C     -3.173288    3.164274   -1.864409
C     -1.943921    3.306863   -2.502805
C     -0.873296    2.475161   -2.152738
C     -3.342973    2.197419   -0.878522
C     -2.272832    1.367021   -0.529497
C     -1.023490    1.493290   -1.160597
C      0.086981    0.616263   -0.783885
N     -0.030044   -0.330550    0.161543
N      1.203978   -0.896086    0.192390
C      1.521149   -1.963516    1.074370
C      0.546493   -2.466352    1.950072
C      0.862007   -3.516857    2.816681
C      2.145014   -4.062776    2.808857
Cl     2.529145   -5.355608    3.877072
C      3.118992   -3.568909    1.941934
C      2.810137   -2.518557    1.072746
N      2.115438   -0.379394   -0.670570
C      1.407518    0.571060   -1.281700
H     -1.810343    4.062089   -3.273328
H      0.071159    2.615101   -2.671976
H     -4.299920    2.081220   -0.376658
H     -2.424379    0.615936    0.244450
H     -0.459805   -2.051595    1.968924
H      0.103721   -3.902933    3.493113
H      4.118858   -3.995371    1.936801
H      3.582094   -2.144623    0.402229
H      1.879471    1.172816   -2.045359
