40

C      0.619569   -4.655889    1.640956
C      1.822024   -3.781431    2.005324
C      1.614130   -2.490271    1.661031
C      0.330623   -2.359892    1.067092
C     -0.284495   -3.635768    1.035969
C     -1.529713   -3.619763    0.464007
S     -1.915205   -2.011510   -0.035500
C     -0.413015   -1.347888    0.526435
C     -0.154494    0.071046    0.367900
N     -0.404640    0.645130   -0.844811
C     -0.169808    1.982642   -1.048609
C      0.307022    2.938898   -0.137310
C      0.509699    4.343615   -0.490225
C      0.391273    5.405199    0.406410
C      0.592835    6.710383   -0.042471
C      0.900718    6.933285   -1.376301
C      0.988627    5.835995   -2.210998
N      0.794862    4.561852   -1.801540
C      0.583967    2.370041    1.134994
N      1.074555    3.007126    2.216031
S      1.204218    1.896683    3.433983
N      0.651639    0.541411    2.669001
C      0.347883    0.893443    1.405446
C     -2.418238   -4.733673    0.277003
C     -3.696245   -4.774206   -0.262442
C     -4.137004   -6.119211   -0.215856
C     -3.109404   -6.832495    0.347364
O     -2.073056   -6.012712    0.649158
H      0.184034   -5.108668    2.536047
H      0.905403   -5.426715    0.920042
H      2.714481   -4.164568    2.476780
H      2.312627   -1.679843    1.813458
H     -0.405836    2.296513   -2.068269
H      0.134282    5.242660    1.448114
H      0.507156    7.544106    0.648999
H      1.064826    7.935402   -1.755516
H      1.223769    5.952117   -3.265362
H     -4.248569   -3.927458   -0.646604
H     -5.084331   -6.515978   -0.552364
H     -2.965475   -7.876153    0.589964
