38

C     -1.414404    0.622819   -2.986914
O     -1.859847   -0.567036   -2.345478
C     -0.927840   -1.519409   -2.038925
C      0.411487   -1.470724   -2.445485
C      1.323404   -2.482827   -2.086846
C      2.751843   -2.386731   -2.549042
C      0.871616   -3.558349   -1.308849
Cl     1.931810   -4.832737   -0.826104
C     -0.458298   -3.625204   -0.900454
C     -1.350338   -2.610616   -1.268727
S     -3.032999   -2.734959   -0.709759
O     -3.060859   -3.666471    0.399275
O     -3.860564   -2.925748   -1.879022
N     -3.367462   -1.205734   -0.074123
C     -2.660312   -0.830332    1.170324
C     -2.888812    0.659732    1.434609
C     -2.258330    1.145650    2.727713
C     -2.069545    2.613217    2.436480
C     -1.666353    2.597335    0.977121
O     -2.281590    1.444686    0.381083
H     -1.049324    0.409760   -3.996627
H     -0.653893    1.134932   -2.388208
H     -2.273927    1.293846   -3.077529
H      0.776306   -0.648474   -3.055122
H      2.922442   -1.482350   -3.142851
H      3.428984   -2.345932   -1.689828
H      3.007452   -3.244786   -3.178989
H     -0.799720   -4.467407   -0.301524
H     -3.243729   -0.504716   -0.815767
H     -3.044572   -1.427642    2.002935
H     -1.587454   -1.013960    1.051390
H     -3.961791    0.890212    1.424073
H     -1.281631    0.674147    2.890843
H     -2.883709    0.953587    3.603840
H     -1.329033    3.097856    3.078053
H     -3.023015    3.141539    2.555153
H     -0.582391    2.487772    0.866661
H     -1.981595    3.499150    0.444861
