31

C      4.973522   -0.094599    4.264964
C      3.868684   -0.257039    5.070291
C      2.736090   -0.118581    4.226786
C      1.347968   -0.166069    4.381542
C      0.502909    0.024596    3.274075
S     -1.221894   -0.002171    3.289959
C     -1.269434    0.309614    1.580060
C     -2.311676    0.470891    0.618508
C     -1.816080    0.710027   -0.652645
S     -0.092818    0.736854   -0.668964
C     -0.023474    0.424805    1.044032
C      1.032772    0.264146    2.003236
C      2.432206    0.311422    1.850486
C      3.239072    0.120157    2.958336
O      4.598822    0.135277    2.978557
C     -2.599092    0.918199   -1.851192
S     -4.348230    0.897700   -1.871120
C     -4.458822    1.207441   -3.574751
C     -3.201750    1.311477   -4.049196
C     -2.534517    1.542034   -5.260690
C     -1.174889    1.500943   -4.933098
O     -0.920886    1.260264   -3.596604
C     -2.196338    1.156132   -3.123022
H      6.039784   -0.112349    4.442871
H      3.879396   -0.451103    6.133159
H      0.920289   -0.351511    5.364019
H     -3.363215    0.410358    0.870152
H      2.879015    0.495345    0.877778
H     -5.412556    1.286003   -4.076798
H     -2.947099    1.715983   -6.243907
H     -0.281418    1.622654   -5.531733
