40

C      3.063295   -3.289429   -3.490510
C      1.616622   -2.862912   -3.468945
O      0.806323   -3.383288   -4.236651
C      1.163304   -1.814585   -2.503828
C      1.955992   -1.395650   -1.497721
C      1.631953   -0.445936   -0.483136
C      2.305253    0.769683   -0.266351
C      1.711591    1.396574    0.811968
C      2.012709    2.761862    1.330392
N      0.687447    0.575715    1.280642
C     -0.190555    0.866673    2.365231
C      0.315809    1.372499    3.568300
C     -0.551201    1.652993    4.626579
C     -1.921157    1.434976    4.486155
C     -2.428861    0.935251    3.287779
C     -1.567111    0.649118    2.227096
C      0.675202   -0.590011    0.506738
C     -0.180972   -1.774068    0.821019
C     -0.201498   -1.231744   -2.670798
C     -1.375216   -2.175735   -2.653890
O     -0.356238   -0.022841   -2.842062
H      3.299067   -3.863608   -2.591020
H      3.237287   -3.926295   -4.363584
H      3.717468   -2.418242   -3.580976
H      2.963332   -1.791987   -1.405480
H      3.115044    1.181060   -0.856377
H      1.100712    3.315409    1.573203
H      2.549460    3.346705    0.574981
H      2.652493    2.708219    2.215987
H      1.382328    1.514371    3.716336
H     -0.156397    2.036122    5.564194
H     -2.594130    1.657358    5.310383
H     -3.498650    0.778651    3.174558
H     -1.990473    0.303960    1.287571
H      0.256095   -2.692027    0.414025
H     -0.277461   -1.928226    1.900259
H     -1.177106   -1.660860    0.384754
H     -2.179327   -1.734085   -2.058444
H     -1.722796   -2.346043   -3.675678
H     -1.104742   -3.130220   -2.193849
