21

C     -3.888855   -1.086787   -1.241911
C     -3.753142   -0.076527   -2.183947
C     -2.800212    0.930184   -2.013313
C     -1.978584    0.904152   -0.869586
S     -0.745152    2.029597   -0.450753
C     -0.365658    1.201627    0.987061
C      0.758332    1.682021    1.976472
C      1.083484    1.026966    3.147815
S      2.355327    1.855302    3.949961
C      2.370458    3.009972    2.683348
N      1.501887    2.820548    1.716107
C     -1.153651    0.086841    1.160667
C     -2.096114   -0.101851    0.092371
C     -3.071121   -1.108839   -0.107907
H     -4.634020   -1.865674   -1.384640
H     -4.392738   -0.065947   -3.063482
H     -2.695134    1.720264   -2.751493
H      0.657412    0.129668    3.570001
H      3.058529    3.845310    2.685684
H     -1.079224   -0.582296    2.007552
H     -3.187582   -1.905680    0.622347
