38

C      0.251988    6.186415   -0.122899
C      1.279388    5.480254   -0.710534
C      0.990631    4.101653   -0.680145
C     -0.205554    3.734773   -0.098415
C     -0.635061    2.392537    0.006873
C      0.149031    1.325725   -0.493113
C     -0.263430   -0.064716   -0.396875
C      0.480909   -1.085988    0.247068
C      0.044448   -2.471668    0.351279
C      0.741033   -3.527431    0.979648
C      1.957562   -3.481202    1.612443
O      2.281515   -4.722286    2.089986
C      1.262596   -5.571805    1.756834
C      0.296655   -4.881527    1.074485
C     -0.887099   -5.403281    0.571698
C     -1.634044   -4.395243   -0.074512
C     -1.198717   -3.006045   -0.181917
C     -1.891898   -1.951651   -0.816232
C     -3.099726   -2.019325   -1.463419
O     -3.429187   -0.791274   -1.962354
C     -2.421826    0.070502   -1.633219
C     -1.455635   -0.588832   -0.913834
C      1.388726    1.694017   -1.087224
N      2.311338    0.866694   -1.625857
S      3.565343    1.817738   -2.189634
N      3.007799    3.339762   -1.771254
C      1.842089    3.071953   -1.200876
S     -1.011192    5.166320    0.439738
H      0.175702    7.257449    0.008033
H      2.168445    5.938782   -1.126971
H     -1.586589    2.178424    0.492941
H      1.439826   -0.818853    0.692573
H      2.687902   -2.709102    1.807643
H      1.389123   -6.596988    2.074535
H     -1.211321   -6.431173    0.649377
H     -2.588940   -4.677628   -0.517092
H     -3.816279   -2.803236   -1.662593
H     -2.553139    1.084032   -1.985357
