46

C     -0.593552   -6.522311   -0.727872
C     -0.410099   -8.041386   -0.670569
C      0.847849   -8.368676   -0.300495
C      1.591345   -7.182901   -0.084903
C      2.865190   -6.895679    0.288398
S      3.067836   -5.187635    0.343956
C      1.418118   -4.853097   -0.141087
C      0.993243   -3.497484   -0.268934
C      1.778970   -2.220636   -0.041806
C      0.776390   -1.122884   -0.338145
C     -0.383907   -1.715051   -0.676798
C     -0.252616   -3.150452   -0.634886
C      0.971730    0.292446   -0.284090
S     -0.283457    1.436111   -0.652935
C      0.687399    2.844974   -0.371893
C      1.946968    2.431465   -0.003436
C      3.244645    3.074233    0.374287
C      4.114267    1.846146    0.630599
C      3.420219    0.705355    0.430076
C      2.088751    1.017834    0.040653
C      0.176904    4.191252   -0.523258
S      1.148861    5.619119   -0.243737
C     -0.128051    6.725940   -0.617270
C     -1.212642    5.993985   -0.931065
C     -2.561187    6.161571   -1.323455
C     -3.105885    4.871267   -1.479129
N     -2.165501    3.882569   -1.203634
C     -1.060454    4.624138   -0.883942
C      0.769839   -6.055301   -0.328650
H     -1.358712   -6.200870   -0.015726
H     -0.851906   -6.204765   -1.741956
H     -1.195779   -8.745691   -0.899642
H      1.234440   -9.371278   -0.184722
H      3.680001   -7.563272    0.529120
H      2.126433   -2.157732    0.995222
H      2.631152   -2.161917   -0.727704
H     -1.313106   -1.237593   -0.950222
H     -1.075823   -3.804223   -0.874492
H      3.155277    3.672816    1.285079
H      3.660107    3.669459   -0.443595
H      5.149456    1.901630    0.932800
H      3.820127   -0.290964    0.548743
H      0.012750    7.796206   -0.578573
H     -3.095324    7.089189   -1.480673
H     -4.105978    4.575586   -1.769273
H     -2.238692    2.871786   -1.222815
