33

C     -0.560289    1.232256    1.086841
C     -0.501023    0.719675   -0.357068
N     -0.314458   -0.732638   -0.340269
C     -1.379507   -1.595877   -0.173540
O     -2.547181   -1.233291   -0.095489
C     -1.042703   -3.038412   -0.051279
C     -1.910585   -3.862181    0.665467
C     -1.592491   -5.202515    0.773182
N     -0.493351   -5.757220    0.217861
C      0.316486   -4.941168   -0.489614
C      0.089599   -3.586461   -0.654780
C      0.568988    1.427783   -1.255907
C      1.998706    1.281302   -0.701551
C      0.531675    0.826139   -2.678441
C      0.250029    2.932533   -1.379551
H     -1.366023    0.735691    1.639646
H      0.368426    1.024552    1.627854
H     -0.756663    2.306740    1.130149
H     -1.486877    0.909420   -0.803080
H      0.609664   -1.077090   -0.121283
H     -2.809712   -3.467997    1.127852
H     -2.231402   -5.887770    1.323284
H      1.178417   -5.425295   -0.940740
H      0.765644   -2.996730   -1.261613
H      2.295899    0.231514   -0.613389
H      2.725224    1.768127   -1.362970
H      2.100687    1.745996    0.284346
H     -0.473562    0.895310   -3.109193
H      1.217222    1.355464   -3.350372
H      0.827745   -0.228508   -2.681035
H     -0.776709    3.091622   -1.727392
H      0.921037    3.420790   -2.096026
H      0.369225    3.454585   -0.424841
