25

C      3.769927    0.223470    3.141839
O      2.597759    0.133698    2.332442
C      1.578614   -0.575942    2.898129
O      1.642247   -1.096605    4.006635
C      0.408913   -0.637291    2.027618
C     -0.791906   -1.299471    2.349278
C     -1.770748   -1.210516    1.333023
C     -3.027547   -1.692181    1.220874
S     -3.643750   -1.204090   -0.310054
C     -2.192871   -0.367638   -0.743714
C     -2.026068    0.336754   -1.984239
C     -1.546912    1.621875   -2.162086
C     -1.502707    2.008026   -3.534210
C     -1.950171    1.005958   -4.363994
S     -2.419868   -0.386200   -3.491207
C     -1.268487   -0.469969    0.265128
S      0.420127    0.143597    0.445162
H      4.181911   -0.772410    3.332692
H      4.515581    0.806657    2.594426
H      3.548924    0.739596    4.081354
H     -0.922980   -1.821109    3.291577
H     -3.615889   -2.284148    1.907871
H     -1.244997    2.266738   -1.345370
H     -1.161219    2.971774   -3.891576
H     -2.026031    1.022210   -5.442575
