38

O      2.657747   -5.225737   -5.325247
C      2.178571   -4.110723   -5.300005
N      2.066049   -3.219396   -6.322326
C      1.475746   -2.056555   -5.932411
O      1.235849   -1.075058   -6.605057
C      1.171021   -2.205520   -4.510041
C      0.573924   -1.328010   -3.624806
C      0.407017   -1.745321   -2.290497
C     -0.221451   -0.854619   -1.299951
C     -1.487924   -0.293265   -1.536780
C     -2.081300    0.560436   -0.604312
C     -1.411489    0.859077    0.583881
C     -2.026522    1.769984    1.582001
O     -3.126091    2.272924    1.374019
C     -1.287614    2.052988    2.838042
C     -1.841634    2.895264    3.807640
C     -1.133054    3.156711    4.979377
C      0.124019    2.583888    5.175602
C      0.675556    1.742511    4.204383
C     -0.033095    1.453566    3.034271
N      0.533983    0.651926    2.030526
C     -0.155763    0.300037    0.859258
C      0.435023   -0.538142   -0.094687
C      0.854339   -3.042246   -1.913269
C      1.457306   -3.914051   -2.829570
C      1.601095   -3.462074   -4.123475
H      2.384517   -3.399011   -7.260939
H      0.257219   -0.344449   -3.961294
H     -2.029128   -0.520447   -2.453925
H     -3.059837    0.991154   -0.805570
H     -2.817800    3.347589    3.647941
H     -1.558162    3.812653    5.735301
H      0.679795    2.798667    6.085492
H      1.662714    1.320018    4.370917
H      1.314317    0.067178    2.300828
H      1.428155   -0.940640    0.093588
H      0.716442   -3.382027   -0.886574
H      1.793612   -4.903738   -2.537859
