29

F     -1.256279   -4.146577    0.382963
C     -0.025913   -3.793297   -0.079542
F      0.849822   -4.667153    0.491559
F     -0.024807   -4.079497   -1.409833
C      0.319490   -2.348780    0.195771
C     -0.675087   -1.358813    0.128938
C     -0.374429   -0.008957    0.364521
C     -1.427913    1.002183    0.298019
N     -1.220841    2.307583    0.521271
N     -2.452724    2.832691    0.351135
C     -2.857809    4.157750    0.455982
C     -4.141061    4.482186    0.247690
C     -5.034870    3.337121   -0.088703
N     -4.685798    2.091184   -0.193613
C     -3.363985    1.821913    0.030029
N     -2.726050    0.674486   -0.004098
C      0.949591    0.346298    0.662749
C      1.967567   -0.620480    0.718472
C      3.382178   -0.215838    1.059119
F      3.722397    1.005420    0.562422
F      4.315203   -1.084623    0.579196
F      3.589874   -0.147584    2.402247
C      1.638835   -1.966013    0.487320
H     -1.701153   -1.647571   -0.106991
H     -2.088341    4.874813    0.708035
H     -4.543312    5.483087    0.307844
H     -6.090812    3.607100   -0.259670
H      1.197265    1.391984    0.851208
H      2.420885   -2.726313    0.534909
