34

C      0.107485    3.353527   -1.611729
O      0.367663    2.009392   -1.224829
C      1.673896    1.579363   -1.309612
C      2.754680    2.376799   -1.699268
C      4.041755    1.837520   -1.746900
C      4.254406    0.505053   -1.403741
C      3.182053   -0.298854   -1.012145
C      1.889145    0.226059   -0.966552
N      0.755040   -0.519544   -0.572442
C      0.659945   -1.884536   -0.336744
O      1.571531   -2.680940   -0.512031
N     -0.606403   -2.186112    0.137486
C     -1.110533   -3.474125    0.382979
N     -0.404979   -4.547220   -0.021438
C     -0.906345   -5.776749    0.209998
C     -2.115462   -6.003539    0.833209
C     -2.849963   -4.898796    1.241406
C     -2.355640   -3.604600    1.018921
C     -3.170526   -2.427749    1.470825
H      0.621983    4.060122   -0.952320
H      0.372525    3.521941   -2.660724
H     -0.968073    3.527189   -1.509267
H      2.633029    3.419471   -1.971003
H      4.881061    2.458070   -2.050941
H      5.256415    0.084399   -1.438424
H      3.387004   -1.330846   -0.744140
H     -0.105771    0.006869   -0.630133
H     -1.152792   -1.408065    0.456513
H     -0.284395   -6.598014   -0.133598
H     -2.475804   -7.012577    0.995832
H     -3.807390   -5.051208    1.733590
H     -3.433293   -1.795445    0.616593
H     -4.106532   -2.742671    1.944667
H     -2.613578   -1.838629    2.206567
