40

C      0.076101   -5.835177   -1.139891
C     -1.270869   -5.909113   -0.496978
C     -1.669242   -4.670966   -0.180077
C     -2.889733   -4.271846    0.449432
C     -3.075789   -2.961048    0.671232
C     -2.092561   -1.909403    0.302288
C     -0.890526   -2.240084   -0.311541
C      0.011394   -1.123704   -0.634863
S      1.566547   -1.294023   -1.403446
C      1.839151    0.411644   -1.363378
C      2.803785    1.378989   -1.732069
C      2.254001    2.588459   -1.344620
O      1.019598    2.393212   -0.767821
C      0.797511    1.049752   -0.795817
C     -0.249850    0.222679   -0.373093
C     -1.459989    0.584762    0.247930
C     -1.962610    1.771209    0.610202
C     -3.305929    1.561230    1.237901
C     -3.466364    0.067806    1.164975
C     -2.385471   -0.488366    0.586861
C      2.801852    3.911437   -1.476119
C      2.217833    5.098904   -1.073904
N      2.948416    6.249757   -1.311169
C      4.080707    5.922463   -1.891806
S      4.329902    4.251567   -2.180839
C     -0.661767   -3.681379   -0.566993
C      0.357383   -4.358871   -1.127187
H      0.048620   -6.221424   -2.162972
H      0.823391   -6.382853   -0.558302
H     -1.819219   -6.821949   -0.324014
H     -3.628419   -5.012251    0.731600
H     -3.997934   -2.646640    1.148165
H      3.757275    1.208878   -2.209926
H     -1.488782    2.731897    0.478085
H     -4.091264    2.069249    0.670656
H     -3.316117    1.907610    2.275454
H     -4.339898   -0.444690    1.535312
H      1.248157    5.181400   -0.596607
H      4.818918    6.661757   -2.174281
H      1.273932   -3.966301   -1.530178
