38

C     -1.889187   -3.069772   -2.634815
C     -0.929478   -3.095906   -1.445938
C     -0.819734   -1.875236   -0.876099
C     -1.641635   -0.949778   -1.574705
C     -2.302862   -1.634576   -2.628159
C     -3.161274   -0.831353   -3.338358
S     -3.115366    0.771727   -2.683318
C     -1.950622    0.377909   -1.466642
C     -1.459320    1.367813   -0.551566
C     -2.049883    2.521818   -0.072269
C     -1.133593    3.146439    0.812308
C      0.008914    2.371417    0.853508
N     -0.206692    1.305505    0.009332
C      1.229904    2.539368    1.578342
S      1.587057    3.877108    2.625269
C      3.171240    3.281600    3.037671
C      3.353742    2.118707    2.378342
C      4.314242    1.109533    2.210104
C      3.727543    0.195848    1.324434
O      2.454331    0.543199    0.909035
C      2.302959    1.717701    1.589636
C     -3.988868   -1.188516   -4.461848
C     -3.752714   -2.164279   -5.415902
N     -4.723850   -2.325212   -6.387686
C     -5.690832   -1.463795   -6.168209
S     -5.499364   -0.438756   -4.810788
H     -1.364741   -3.340356   -3.555198
H     -2.737657   -3.738276   -2.464505
H     -0.423053   -3.988233   -1.108696
H     -0.219404   -1.646607   -0.007032
H     -3.041656    2.877746   -0.320973
H     -1.300115    4.066658    1.357590
H      0.481711    0.589278   -0.180410
H      3.818238    3.822608    3.713143
H      5.297331    1.026587    2.650824
H      4.087248   -0.734265    0.903494
H     -2.873567   -2.794636   -5.460092
H     -6.563347   -1.400628   -6.805288
