22

C     -3.260222    0.830487    3.114252
C     -2.453642   -0.247846    2.486276
C     -1.842678   -0.226873    1.304005
C     -1.217692   -1.497232    1.177171
C     -0.473148   -2.035189    0.201822
N     -0.030648   -1.564870   -1.033373
C     -0.161014   -0.176749   -1.465851
C      0.868849   -2.380122   -1.855803
C     -1.534837   -2.260690    2.418655
O     -1.182542   -3.393808    2.697869
O     -2.310828   -1.442821    3.215921
H     -3.315888    1.716605    2.473851
H     -4.280757    0.481975    3.300542
H     -2.816766    1.129365    4.069065
H     -1.833691    0.583665    0.598741
H     -0.124918   -3.057631    0.367423
H      0.333072    0.000191   -2.427799
H      0.296376    0.500022   -0.736594
H     -1.215908    0.084259   -1.595859
H      0.716955   -2.177265   -2.921511
H      1.911137   -2.162046   -1.601383
H      0.689978   -3.450625   -1.705740
