40

O      0.507622   -2.035463   -1.355290
C      0.657127   -0.945295   -1.902719
C      1.998578   -0.294766   -2.180462
C      3.156737   -0.891743   -1.376666
C      3.405567   -0.269827    0.015579
C      2.240447   -0.484499    0.994654
C      2.473201    0.289685    2.287447
C      2.574493    1.796993    2.047813
C      2.867037    2.168990    0.595027
C      3.853372    1.206451   -0.058534
N     -0.414759   -0.204935   -2.371201
N     -1.690443   -0.606110   -1.912005
C     -2.495493    0.402025   -1.394310
O     -2.199844    1.589412   -1.517872
C     -3.718606   -0.037205   -0.663859
C     -4.393734   -1.197957   -1.019284
N     -5.508370   -1.623144   -0.371234
C     -5.927270   -0.827798    0.640179
C     -5.264313    0.337024    0.990328
N     -4.149530    0.758675    0.351075
H      2.196459   -0.459553   -3.247285
H      1.925322    0.786195   -2.027934
H      3.027433   -1.975269   -1.264877
H      4.075161   -0.760164   -1.964483
H      4.264051   -0.822710    0.425707
H      2.137646   -1.553173    1.216486
H      1.290024   -0.155925    0.561908
H      3.399437   -0.064558    2.757367
H      1.667107    0.083776    3.000986
H      3.356245    2.206010    2.699581
H      1.640098    2.283335    2.353267
H      3.256554    3.192545    0.550709
H      1.929847    2.171031    0.024873
H      4.817846    1.302290    0.458166
H      4.040596    1.515499   -1.093288
H     -0.313793    0.805334   -2.489998
H     -1.704639   -1.544244   -1.506456
H     -4.079630   -1.824062   -1.846877
H     -6.819175   -1.152638    1.164678
H     -5.614315    0.967097    1.800669
