47

C     -4.867144    5.216431   -1.377394
C     -5.936833    5.284136   -0.458269
C     -5.586025    4.470983    0.646655
C     -6.052411    4.064076    1.844830
S     -4.851190    3.018109    2.548021
C     -3.779223    3.163428    1.195185
C     -2.507378    2.471304    1.114406
C     -1.475230    2.751300    2.009402
N     -0.247860    2.179683    2.015738
C     -0.048136    1.250600    1.048317
C     -1.023249    0.904737    0.119082
C     -2.284395    1.505556    0.127475
N     -0.496819   -0.088275   -0.681525
C      0.828255   -0.365136   -0.374129
C      1.049190    0.439587    0.738591
C      2.298826    0.333378    1.408531
C      2.672462    1.046565    2.510152
S      4.245838    0.546359    2.986761
C      4.343108   -0.606000    1.701973
C      3.211244   -0.619958    0.909380
C      3.026857   -1.466118   -0.221018
C      3.964315   -2.432413   -0.631966
C      3.714674   -3.222265   -1.747003
C      2.565601   -3.040269   -2.520657
C      2.400550   -3.841908   -3.663312
C      1.314941   -3.671269   -4.514312
C      0.394053   -2.675573   -4.242641
C      0.544301   -1.878346   -3.101817
C      1.602912   -2.052175   -2.170267
C      1.796964   -1.289850   -0.946461
C     -4.347275    3.987637    0.287876
N     -3.840410    4.395664   -0.913547
H     -4.754039    5.702678   -2.338109
H     -6.841652    5.861807   -0.593915
H     -6.975431    4.291755    2.357837
H     -1.613985    3.496107    2.791366
H     -3.054515    1.225649   -0.583593
H     -1.047210   -0.592397   -1.356666
H      2.138433    1.809563    3.059886
H      5.245458   -1.193674    1.621647
H      4.887799   -2.595850   -0.085062
H      4.454110   -3.971929   -2.023620
H      3.134761   -4.606833   -3.910605
H      1.208422   -4.294527   -5.397757
H     -0.435137   -2.501176   -4.923593
H     -0.166304   -1.070188   -3.000044
H     -2.945268    4.158195   -1.324421
