31

C      1.907546   -0.046361    3.239948
C      0.609115    0.070356    3.939609
N      0.584831    0.189544    5.312806
C     -0.694359    0.204953    5.602532
O     -1.526089    0.120187    4.534832
C     -0.686891    0.050998    3.445562
C     -1.286780   -0.042694    2.128033
O     -2.423638   -0.475727    1.966937
N     -0.478057    0.427258    1.102413
C     -0.743830    0.419423   -0.283918
C     -1.864093   -0.179998   -0.865956
C     -2.051313   -0.142994   -2.252985
C     -1.119859    0.493036   -3.066546
C      0.018246    1.066564   -2.497910
C      0.198659    1.042016   -1.114126
O      0.999801    1.679747   -3.235051
C      0.886295    1.355404   -4.626315
C     -0.557154    1.466650   -5.089109
O     -1.379223    0.509244   -4.412039
H      1.858483   -0.793559    2.441997
H      2.194972    0.915477    2.804811
H      2.696434   -0.352745    3.934393
H     -1.159533    0.275714    6.575755
H      0.370773    0.900605    1.376054
H     -2.618156   -0.687935   -0.272468
H     -2.932300   -0.604206   -2.691535
H      1.088155    1.509469   -0.701506
H      1.280590    0.343342   -4.780817
H      1.517169    2.055999   -5.182238
H     -0.627329    1.264196   -6.162409
H     -0.962766    2.468847   -4.902749
