40

Si    -1.675726   -6.784743    3.336261
C     -1.480400   -5.113949    4.243182
C     -1.074220   -4.139071    3.400057
C     -0.883543   -4.552661    2.039300
C     -1.146683   -5.919670    1.750664
C     -0.965141   -6.280442    0.451974
S     -0.458743   -4.905449   -0.457888
C     -0.490346   -3.852279    0.922456
C     -0.125259   -2.451862    0.750746
C     -0.851456   -1.584736   -0.094717
C     -0.434591   -0.255021   -0.196733
O     -1.022812    0.712702   -0.963360
C     -0.306658    1.866597   -0.776223
C      0.748807    1.653700    0.113697
N      1.616419    2.629844    0.477197
C      1.387491    3.838938   -0.089904
C      0.365396    4.161632   -0.989540
C      0.221106    5.472668   -1.523134
C     -0.792596    5.839960   -2.430078
C     -1.700302    4.822145   -2.809219
N     -2.728516    4.971941   -3.657148
S     -3.471011    3.490745   -3.759532
N     -2.523491    2.596933   -2.733984
C     -1.572702    3.419992   -2.259389
C     -0.527527    3.115453   -1.348567
C      0.635755    0.307204    0.457051
C      1.407967   -0.514760    1.322442
N      2.456017   -0.075629    1.999145
S      2.962827   -1.441803    2.820503
N      1.827506   -2.552910    2.299549
C      0.995499   -1.911513    1.450264
H     -0.700828   -7.784479    3.838779
H     -3.092660   -7.226840    3.337393
H     -1.677719   -5.029550    5.299526
H     -0.895558   -3.119765    3.722222
H     -1.091937   -7.242450   -0.025648
H     -1.717157   -1.931328   -0.651461
H      2.103249    4.598784    0.223193
H      0.928244    6.248443   -1.222206
H     -0.879353    6.847061   -2.821338
