44

C      1.767672   -0.137606   -0.732331
C      1.964328   -1.567532   -0.263473
C      0.877012   -2.046281    0.370200
C     -0.118933   -0.990660    0.405766
C     -1.382939   -0.981512    0.946945
C     -2.154497    0.202296    0.838924
C     -3.471352    0.230433    1.397398
N     -4.083214   -0.783318    2.039696
S     -5.580342   -0.245933    2.486619
N     -5.531338    1.295298    1.890642
C     -4.327268    1.460536    1.308764
C     -3.861968    2.651606    0.663616
C     -4.737521    3.783491    0.620074
C     -4.395719    4.995801    0.020125
C     -3.112442    5.047660   -0.554411
N     -2.607772    6.124804   -1.174710
S     -1.088606    5.713103   -1.677836
N     -1.003434    4.155236   -1.134694
C     -2.164989    3.859729   -0.521136
C     -2.526211    2.594898    0.107324
C     -1.679508    1.394961    0.189233
C     -0.368042    1.306980   -0.344277
C      0.380433    0.139389   -0.231696
C      3.197436   -2.286801   -0.538534
C      3.937338   -2.194767   -1.747412
C      5.164961   -2.904438   -2.012113
C      5.795872   -3.773653   -1.094644
C      5.068488   -3.833062    0.085110
C      5.389577   -4.549167    1.206341
O      4.447713   -4.326281    2.172148
C      3.521921   -3.460953    1.654093
C      3.848276   -3.140912    0.359721
H      2.492889    0.536823   -0.266426
H      1.802762   -0.056435   -1.822910
H      0.721832   -3.033330    0.775277
H     -1.772867   -1.865268    1.444333
H     -5.728075    3.711890    1.075187
H     -5.070029    5.843246   -0.004260
H      0.098972    2.140516   -0.857018
H      3.555589   -1.561957   -2.549651
H      5.633506   -2.757463   -2.986497
H      6.718408   -4.296611   -1.301204
H      6.194936   -5.213433    1.485272
H      2.726804   -3.184928    2.331502
