28

C      1.783108   -2.821164   -3.071625
C      0.612202   -2.456449   -3.739912
C     -0.290871   -1.576781   -3.140129
C     -0.018710   -1.064687   -1.872407
C      1.150125   -1.428727   -1.205248
C      2.053508   -2.306998   -1.802067
O      1.459319   -0.949892    0.043085
C      0.540842   -0.089737    0.588798
C      0.809242    0.423412    1.854133
C     -0.096375    1.305641    2.455762
C     -1.279434    1.683598    1.798177
C     -2.252521    2.603393    2.392176
C     -2.132386    3.196782    3.636245
S     -3.486959    4.204172    3.954329
C     -4.130306    3.781312    2.425778
N     -3.411233    2.950689    1.705588
C     -1.530490    1.153593    0.521376
C     -0.626072    0.274304   -0.076129
O     -0.936218   -0.203989   -1.324596
H      2.485149   -3.506328   -3.540340
H      0.403024   -2.857688   -4.728485
H     -1.202179   -1.291838   -3.658194
H      2.963731   -2.589742   -1.281168
H      1.720324    0.139385    2.373665
H      0.148467    1.684487    3.443714
H     -1.347631    3.106639    4.371552
H     -5.075022    4.178146    2.077847
H     -2.436459    1.424186   -0.017303
