36

C      2.208559   -4.242122    4.921923
S      3.787999   -3.938474    4.287016
C      3.204877   -2.733283    3.199195
C      1.855108   -2.610511    3.358072
C      1.255064   -3.448738    4.324857
C     -0.089148   -3.520230    4.677570
C     -0.900057   -2.626309    3.949789
C     -0.355224   -1.756245    2.962586
S     -1.170424   -0.605273    1.977682
C      0.273311   -0.095994    1.164729
C      1.370362   -0.801969    1.644060
C      0.988310   -1.716694    2.642068
C      0.229279    0.954157    0.119835
C      1.388612    1.367702   -0.537593
N      1.465699    2.319820   -1.509404
C      0.342323    2.936449   -1.893529
C      0.438111    3.926917   -2.907744
C     -0.634555    4.682259   -3.441720
C     -1.842965    4.340273   -2.845866
C     -3.030329    4.934276   -3.193924
S     -4.335665    4.293681   -2.278069
C     -3.302043    3.220236   -1.416617
C     -1.991767    3.345564   -1.816296
C     -0.901620    2.594499   -1.290277
C     -0.942666    1.598849   -0.282316
H      2.083935   -4.987176    5.695826
H      3.883754   -2.215327    2.537391
H     -0.497105   -4.184367    5.429477
H     -1.970123   -2.601512    4.148541
H      2.382832   -0.660839    1.290784
H      2.357369    0.933976   -0.304735
H      1.434896    4.119772   -3.309694
H     -0.497962    5.425200   -4.216012
H     -3.215172    5.705426   -3.929317
H     -3.732134    2.566912   -0.670959
H     -1.898429    1.350957    0.166277
