45

C      3.530744    1.385836   -4.244395
C      2.115560    1.218630   -3.720752
O      2.198208    0.710726   -2.384073
C      0.981740    0.808756   -1.758739
C      0.741224    1.958854   -1.011363
C     -0.456187    2.092471   -0.320542
C     -1.422648    1.078234   -0.387315
S     -2.903696    1.322559    0.585881
O     -2.675100    2.422049    1.505017
O     -4.026481    1.350384   -0.326538
N     -2.997622   -0.090068    1.540959
C     -4.301944   -0.235020    2.273017
C     -4.152890    0.114293    3.764435
N     -3.232177   -0.794477    4.479445
C     -2.704721   -0.147970    5.677460
C     -2.156424   -1.280603    3.593411
C     -1.810117   -0.337360    2.425772
C     -1.203971   -0.089788   -1.159610
C     -2.232341   -1.189964   -1.254123
C      0.051412   -0.245549   -1.806478
C      0.390685   -1.507993   -2.559640
H      4.081434    2.107227   -3.631963
H      4.078943    0.439368   -4.191103
H      3.523650    1.731682   -5.280461
H      1.603651    2.188908   -3.748391
H      1.574416    0.506037   -4.354438
H      1.492214    2.743006   -0.959876
H     -0.626881    2.991678    0.268610
H     -5.078424    0.395955    1.827086
H     -4.643408   -1.270831    2.150020
H     -3.809182    1.154615    3.840745
H     -5.136545    0.060467    4.246647
H     -2.079927    0.719069    5.438593
H     -3.522523    0.180700    6.328288
H     -2.105349   -0.854329    6.260849
H     -2.492923   -2.237092    3.172347
H     -1.248908   -1.514978    4.163313
H     -1.025549   -0.804079    1.822710
H     -1.416047    0.601990    2.826849
H     -2.074336   -1.921072   -0.455310
H     -3.254744   -0.813674   -1.202352
H     -2.174452   -1.707789   -2.216148
H      0.068317   -2.394296   -2.001770
H     -0.090427   -1.499635   -3.543071
H      1.469546   -1.622144   -2.703472
