36

C     -0.572340    2.811366   -2.274498
C      0.191785    1.514113   -2.453550
O      0.576921    1.044446   -1.158734
C      1.187990   -0.162535   -1.151015
O      1.499580   -0.813499   -2.143004
C      1.615202   -0.581827    0.227495
C      0.866161   -0.354197    1.324446
C     -0.446193    0.206322    1.407210
C     -1.538594   -0.200375    0.671866
N     -2.610224    0.559519    1.062456
C     -2.239779    1.433470    2.059477
C     -3.000215    2.378379    2.758996
C     -2.351942    3.133435    3.740955
C     -0.998047    2.949257    4.011085
C     -0.251826    2.001001    3.301963
C     -0.880995    1.225874    2.305367
N      2.835694   -1.251879    0.226352
C      3.562700   -1.747470    1.288036
C      4.825125   -2.447657    0.851631
O      3.284383   -1.633322    2.476260
H      0.047446    3.556822   -1.765318
H     -1.457738    2.653795   -1.649535
H     -0.888703    3.214656   -3.240428
H      1.086488    1.689685   -3.060892
H     -0.448654    0.773093   -2.945109
H      1.262344   -0.640788    2.294301
H     -1.654171   -0.960165   -0.089398
H     -3.546063    0.482022    0.689862
H     -4.055660    2.523283    2.553828
H     -2.914676    3.874979    4.303388
H     -0.513196    3.546092    4.779572
H      0.803993    1.865529    3.518463
H      3.213752   -1.402601   -0.707308
H      5.635557   -1.717856    0.778420
H      5.087311   -3.212505    1.588315
H      4.689244   -2.942075   -0.114519
