35

N     -0.538699    1.597068   -1.700350
C     -1.446083    0.945683   -0.924190
C     -1.240730    0.066064    0.130068
C      0.077196   -0.309826    0.620127
C      0.950156    0.664424    1.113157
C      2.213570    0.304199    1.587335
C      2.625542   -1.036981    1.579433
C      3.892050   -1.415548    2.052950
C      4.287199   -2.754116    2.040578
C      3.421863   -3.730303    1.555856
C      2.159373   -3.370467    1.081633
C      1.746181   -2.028332    1.086022
C      0.478088   -1.651535    0.611268
C     -2.520501   -0.376243    0.570076
C     -2.799841   -1.299931    1.625889
N     -3.043737   -2.058860    2.469909
C     -3.475309    0.256452   -0.200945
C     -4.903606    0.233766   -0.239066
C     -5.560165    1.008675   -1.122510
C     -4.851929    1.877647   -2.044128
C     -3.509338    1.897201   -2.017612
N     -2.818118    1.087559   -1.108028
H     -0.792892    1.915621   -2.631425
H      0.430102    1.279670   -1.669476
H      0.650752    1.710434    1.135081
H      2.873234    1.080897    1.967665
H      4.581537   -0.667773    2.438283
H      5.269589   -3.033722    2.412072
H      3.726961   -4.773483    1.548679
H      1.496336   -4.149057    0.710579
H     -0.196317   -2.413580    0.225570
H     -5.452807   -0.406646    0.445719
H     -6.645454    1.004399   -1.163054
H     -5.421783    2.494725   -2.729942
H     -2.926068    2.529487   -2.672210
