43

C     -1.950726   -4.408991   -2.609571
C     -3.164157   -4.969696   -3.294679
C     -4.215841   -4.176938   -3.060875
C     -3.800616   -3.070834   -2.238456
C     -2.486316   -3.162251   -1.952400
C     -1.710968   -2.216770   -1.147577
C     -2.258319   -1.021479   -0.591912
C     -1.538801   -0.065353    0.203960
C     -0.177770   -0.196094    0.542375
C      0.550558    0.739957    1.361181
S      0.824895    2.379812    0.899178
C      1.710783    2.772638    2.354609
C      2.284257    4.069766    2.612135
C      3.395389    4.344155    3.391064
C      3.699883    5.735775    3.456412
C      2.810192    6.488843    2.726792
S      1.622576    5.521194    1.971691
C      1.737481    1.646699    3.109805
C      2.199803    1.148509    4.359787
C      1.801636   -0.202418    4.448912
N      1.096556   -0.603020    3.317764
C      1.104687    0.544360    2.575798
C      0.372377   -1.359794   -0.005340
C      1.678716   -1.775789    0.096360
N      1.785070   -2.954900   -0.598214
C      0.565266   -3.297399   -1.143760
C     -0.346367   -2.322222   -0.807848
H     -1.179086   -4.179732   -3.351058
H     -1.580313   -5.130340   -1.874646
H     -3.173843   -5.874884   -3.882148
H     -5.222206   -4.322749   -3.422610
H     -4.490203   -2.301833   -1.926522
H     -3.307604   -0.787513   -0.772406
H     -2.088862    0.803904    0.566811
H      3.978744    3.579396    3.888704
H      4.529530    6.159343    4.008820
H      2.798615    7.562378    2.598103
H      2.745630    1.685895    5.123524
H      1.961782   -0.916868    5.246249
H      0.676020   -1.492150    3.071465
H      2.544734   -1.343435    0.580447
H      2.637544   -3.489629   -0.706179
H      0.500476   -4.203681   -1.724461
