48

C      4.760329   -0.632020   -3.175880
C      4.063602    0.718882   -3.008865
C      2.873834    0.583065   -2.381391
C      2.652342   -0.787235   -2.077401
C      3.762153   -1.538560   -2.537117
C      3.657466   -2.877874   -2.257023
S      2.167657   -3.176892   -1.427563
C      1.669110   -1.507420   -1.452111
C      0.431569   -1.119610   -0.891019
Si    -0.882676   -0.169450   -1.849640
C     -1.939241   -0.238194   -0.279307
C     -1.301906   -0.897293    0.709731
C      0.024783   -1.391440    0.366034
C     -3.273688    0.355681   -0.224056
C     -4.354456   -0.456096   -0.603885
C     -5.654076    0.038521   -0.580495
C     -5.889492    1.348230   -0.170120
C     -4.832785    2.180311    0.230012
C     -5.090890    3.496445    0.648855
C     -4.056312    4.336935    1.057286
C     -2.748416    3.871443    1.055025
C     -2.475120    2.566136    0.640168
C     -3.502249    1.690019    0.214338
C      4.567689   -3.982530   -2.560700
C      5.198421   -4.087779   -3.797128
C      6.067891   -5.153464   -4.018081
C      6.283306   -6.077167   -3.002753
C      5.616301   -5.896815   -1.803008
N      4.769529   -4.873560   -1.560235
H      5.717637   -0.643948   -2.647470
H      4.903615   -0.861183   -4.235262
H      4.486678    1.653997   -3.344550
H      2.200810    1.391217   -2.131973
H     -0.454877    1.216518   -2.180759
H     -1.476636   -0.955186   -2.963342
H     -1.717934   -1.064245    1.696182
H      0.613643   -1.933653    1.096857
H     -4.185855   -1.483437   -0.921166
H     -6.483706   -0.596455   -0.879621
H     -6.913462    1.716013   -0.159029
H     -6.109543    3.878835    0.662711
H     -4.274407    5.351438    1.379936
H     -1.937363    4.518908    1.377481
H     -1.439707    2.233090    0.658889
H      5.009409   -3.368169   -4.585602
H      6.568346   -5.263320   -4.975893
H      6.951754   -6.919248   -3.142503
H      5.748187   -6.591404   -0.978231
