38

C      6.641855    2.001290    0.932998
C      6.527981    0.767030    1.532608
C      5.157257    0.391712    1.437212
C      4.546324    1.441769    0.779915
O      5.435484    2.419438    0.471033
C      3.026657    1.428176    0.470846
S      2.231061    2.692405   -0.332990
C      0.751899    1.811053   -0.195378
C     -0.616214    1.955741   -0.552879
C     -1.274610    0.815718   -0.113995
N     -0.326680    0.009841    0.490020
C      0.907277    0.615810    0.440537
C      2.255422    0.343770    0.858156
C      2.922944   -0.732908    1.540633
C      2.196174   -1.865769    1.961642
C      2.823127   -2.924464    2.626610
C      4.188806   -2.883374    2.889771
C      4.945705   -1.782806    2.491337
C      4.339426   -0.703113    1.820064
C     -2.690704    0.431469   -0.214312
C     -3.226699   -0.769672    0.280759
N     -4.527116   -1.214771    0.235238
C     -5.495457   -0.456580   -0.348877
C     -5.124160    0.784782   -0.898527
N     -5.944823    1.655123   -1.508568
S     -5.005217    2.942194   -1.963161
N     -3.525012    2.452939   -1.408451
C     -3.683259    1.246054   -0.831940
H      7.466694    2.679138    0.762170
H      7.336297    0.209120    1.982414
H     -1.043261    2.804483   -1.070257
H     -0.471794   -0.894007    0.916318
H      1.131702   -1.952409    1.784086
H      2.239829   -3.787034    2.940923
H      4.667290   -3.711327    3.407357
H      6.010502   -1.780117    2.711330
H     -2.580166   -1.490192    0.778972
H     -6.505231   -0.844595   -0.362832
