36

Si    -2.833144    2.418015   -1.884809
C     -1.516490    1.094737   -1.889628
C     -0.985206    0.924649   -0.660971
C      0.082380   -0.019288   -0.309681
C      0.496434   -0.029264    0.979296
C     -0.062870    0.847787    2.006182
C     -1.054884    1.735117    1.760672
C     -1.511401    2.523282    2.858454
C     -0.930797    3.623439    3.467996
N     -1.624724    4.174485    4.529012
C     -2.730605    3.490594    4.717160
S     -2.999677    2.171902    3.656927
C     -1.558427    1.813148    0.385089
C     -2.517683    2.651471   -0.059472
C      0.689442   -0.950539   -1.211034
C      0.137782   -2.079596   -1.784746
C      1.044871   -2.757311   -2.651303
C      2.277446   -2.133863   -2.738091
S      2.302524   -0.725105   -1.754917
C      3.410377   -2.567286   -3.527551
C      3.519005   -3.720731   -4.290280
N      4.713116   -3.911287   -4.961898
C      5.510007   -2.899747   -4.706467
S      4.887739   -1.689344   -3.670406
H     -2.446603    3.605548   -2.683304
H     -4.182977    1.869807   -2.159670
H     -1.250444    0.576365   -2.797206
H      1.272646   -0.713416    1.315223
H      0.360386    0.736405    3.002238
H      0.011335    4.068386    3.169719
H     -3.437508    3.740595    5.497422
H     -3.064738    3.386214    0.509829
H     -0.876713   -2.406329   -1.587482
H      0.786527   -3.663255   -3.185725
H      2.748357   -4.474374   -4.396638
H      6.505692   -2.829463   -5.124667
