30

C      1.449787   -0.979108   -1.545206
C      1.805028   -1.285129   -2.869450
C      2.948902   -0.732920   -3.447912
C      3.751839    0.131676   -2.710612
C      3.412110    0.445382   -1.393735
C      2.264056   -0.102295   -0.797498
C      1.908510    0.203479    0.526647
C      0.760002   -0.344631    1.122626
C     -0.053043   -1.220137    0.376034
C     -1.201549   -1.768249    0.972014
C     -1.557097   -1.462471    2.296158
C     -2.705143   -2.010154    2.892402
C     -3.044873   -1.696450    4.209283
C     -2.241948   -0.831840    4.946581
C     -1.098069   -0.279644    4.368119
C     -0.742832   -0.585662    3.043871
C      0.405074   -0.038204    2.447322
C      0.301880   -1.526568   -0.948661
H      1.190085   -1.958901   -3.461884
H      3.211475   -0.978653   -4.473509
H      4.643033    0.562871   -3.158971
H      4.052335    1.123214   -0.833595
H      2.536909    0.879897    1.103121
H     -1.829936   -2.444681    0.395541
H     -3.345364   -2.687983    2.332255
H     -3.936064   -2.127650    4.657642
H     -2.504515   -0.586118    5.972184
H     -0.483116    0.394115    4.960556
H      1.032961    0.638135    3.024451
H     -0.326004   -2.202920   -1.525779
