37

O      1.251250   -1.454140   -4.440725
C      1.897766   -1.132817   -3.450226
C      3.263607   -0.570394   -3.593592
C      3.933289   -0.240133   -2.484202
N      3.449424   -0.393705   -1.214192
C      2.156877   -0.887678   -0.988586
C      1.655601   -1.032906    0.308255
C      0.363719   -1.543443    0.531275
C     -0.151975   -1.683426    1.890985
C     -0.071548   -2.912197    2.579849
C     -0.551054   -3.050939    3.883691
C     -1.128731   -1.970889    4.552393
C     -1.202577   -0.766773    3.854313
O     -1.733177    0.382187    4.352073
C     -1.629791    1.324373    3.377989
C     -2.064367    2.643706    3.492143
C     -1.876053    3.464911    2.376881
C     -1.281798    2.972677    1.213611
C     -0.853854    1.639504    1.129593
C     -1.029533    0.791257    2.241901
C     -0.742367   -0.578342    2.552967
C     -0.418342   -1.923482   -0.571480
C      0.072588   -1.793813   -1.871713
C      1.355387   -1.280117   -2.074301
H      3.657664   -0.448172   -4.592595
H      4.933542    0.180682   -2.535511
H      3.989600   -0.039250   -0.433748
H      2.267582   -0.744614    1.160306
H      0.377033   -3.774566    2.088123
H     -0.472752   -4.012585    4.386489
H     -1.505974   -2.056787    5.564515
H     -2.526506    3.006848    4.402037
H     -2.200922    4.502517    2.416712
H     -1.149983    3.630392    0.356774
H     -0.399371    1.275829    0.213029
H     -1.420504   -2.321232   -0.419399
H     -0.540508   -2.091225   -2.719362
