32

N     -2.669186    4.278511    0.401511
C     -1.843228    3.989641    1.163569
C     -0.817532    3.669090    2.097993
C     -0.500746    4.556468    3.106537
N      0.440107    4.325225    4.044536
C      1.071231    3.147715    3.954594
N      0.845994    2.211050    3.022296
C     -0.099781    2.482707    2.086488
C     -0.287229    1.406222    1.097181
C     -0.188451    1.631582   -0.277308
C     -0.374396    0.583741   -1.184174
C     -0.657851   -0.734468   -0.751811
C     -0.741178   -0.964077    0.639757
C     -0.552262    0.093208    1.520814
N     -1.000174   -2.166240    1.167822
C     -1.187415   -3.201770    0.323093
C     -1.133355   -3.114626   -1.062465
C     -1.341906   -4.246457   -1.872683
C     -1.286165   -4.146638   -3.259716
C     -1.022269   -2.917204   -3.846905
C     -0.813995   -1.789278   -3.046082
C     -0.862432   -1.852198   -1.629940
H     -1.009595    5.513446    3.202866
H      1.829805    2.932005    4.699461
H      0.045763    2.620035   -0.668303
H     -0.289843    0.817905   -2.241868
H     -0.614658   -0.118932    2.588277
H     -1.392109   -4.147043    0.820049
H     -1.550113   -5.215549   -1.423578
H     -1.448736   -5.025193   -3.878441
H     -0.977608   -2.829020   -4.929643
H     -0.612283   -0.850945   -3.555472
