37

O     -2.466560   -1.633068   -5.366398
C     -2.120356   -1.634697   -4.047156
C     -0.776353   -1.481235   -3.730046
C     -0.377648   -1.474783   -2.392548
C     -1.323536   -1.629763   -1.368435
C     -0.896832   -1.606127    0.080253
N     -1.248677   -0.333709    0.700972
C     -0.699569   -0.178438    2.050407
C      0.624374    0.611396    2.226331
C      1.869869   -0.002929    1.591660
O      1.894524    0.119622    0.169617
C      1.574810    1.392537   -0.219767
C      1.932252    1.759041   -1.516192
C      1.631558    3.038167   -1.985461
C      0.968910    3.946302   -1.159263
C      0.597568    3.572292    0.133241
C      0.890563    2.291833    0.600214
O      0.452225    1.990335    1.860760
C     -2.677227   -1.773970   -1.709578
C     -3.077064   -1.779659   -3.047789
H     -3.430844   -1.728276   -5.428842
H     -0.041498   -1.361896   -4.520551
H      0.674980   -1.343090   -2.152777
H      0.177442   -1.807017    0.144250
H     -1.396818   -2.430430    0.604233
H     -0.932834    0.432845    0.105405
H     -0.608759   -1.154714    2.543269
H     -1.466186    0.369916    2.612525
H      0.808579    0.628100    3.308824
H      2.773686    0.482798    1.983246
H      1.943117   -1.066837    1.841261
H      2.447693    1.051411   -2.159221
H      1.912017    3.325571   -2.995611
H      0.732689    4.942431   -1.524720
H      0.066863    4.274009    0.770845
H     -3.424518   -1.870475   -0.924623
H     -4.129776   -1.891133   -3.285325
