43

C      1.870570    6.327403    0.096496
C      0.723311    6.297239    0.868051
C      0.296847    4.945056    0.958921
C     -0.749745    4.243284    1.564474
N     -0.911332    2.896547    1.477025
C     -0.031107    2.128007    0.769331
C      1.042701    2.696556    0.125695
S      2.021549    1.618532   -0.694392
C      1.028590    0.287631   -0.216225
C      1.248653   -1.056599   -0.560361
C      0.373224   -2.056425   -0.108638
C      0.662153   -3.435290   -0.500860
C      0.225078   -4.016373   -1.719819
C      0.509181   -5.363391   -2.116946
C      1.261397   -6.271373   -1.341649
C      1.693085   -5.698933   -0.145261
C      2.442857   -6.390409    0.773686
S      2.813023   -5.412222    2.137942
C      1.966349   -4.060451    1.494182
C      1.413350   -4.344420    0.266527
C     -0.739065   -1.707072    0.691046
C     -1.661567   -2.666498    1.173774
C     -2.754273   -2.309458    1.965017
C     -2.958854   -0.979627    2.297308
C     -2.071701   -0.006397    1.838783
C     -0.956279   -0.342384    1.035686
C     -0.056877    0.686212    0.576780
C      1.210652    4.217288    0.234343
N      2.159613    5.039819   -0.287097
H      2.502739    7.150129   -0.210639
H      0.246223    7.158966    1.316839
H     -1.505420    4.757668    2.151003
H      2.105925   -1.323110   -1.176381
H     -0.368918   -3.404375   -2.401041
H      0.118879   -5.704067   -3.076799
H      1.464948   -7.285170   -1.659821
H      2.797657   -7.410880    0.731265
H      1.925521   -3.140429    2.061618
H     -1.538041   -3.721917    0.936898
H     -3.441275   -3.073396    2.319119
H     -3.806925   -0.692592    2.913189
H     -2.268101    1.024415    2.121605
H      2.942790    4.749729   -0.858673
