44

C      2.818785   -0.082285   -1.949400
N      2.254283    1.076136   -2.423109
C      1.105530    1.356176   -1.721626
C      0.859909    0.314720   -0.852819
C      2.004957   -0.558704   -0.946249
C      2.293120   -1.632559   -0.099688
C      1.359292   -1.645297    0.959948
C      0.217893   -0.750714    1.076944
C     -0.554769   -0.777634    2.277450
N     -0.352846   -1.587662    3.335110
S     -1.447896   -1.161706    4.495436
N     -2.248170    0.056056    3.715858
C     -1.694659    0.175134    2.492239
C     -2.117339    1.076967    1.459965
C     -3.180599    1.960181    1.725507
C     -3.676817    2.777919    0.724057
C     -3.207020    2.646653   -0.579772
C     -3.830521    3.388225   -1.598041
C     -3.493233    3.198321   -2.933543
C     -2.550499    2.240063   -3.262768
C     -1.911187    1.516555   -2.250110
C     -2.152000    1.736082   -0.872216
C     -1.466109    1.026385    0.196067
C     -0.207562    0.239020    0.100208
C      3.425044   -2.546020   -0.204497
C      3.778742   -3.174542   -1.398251
C      4.858958   -4.054634   -1.412256
C      5.555156   -4.294011   -0.235504
C      5.135388   -3.645124    0.911796
N      4.091099   -2.789053    0.953165
H      3.776548   -0.411098   -2.329560
H      2.665300    1.678300   -3.125115
H      0.594275    2.292570   -1.898345
H      1.529822   -2.370612    1.760687
H     -3.627460    2.011120    2.717034
H     -4.490054    3.460572    0.960704
H     -4.615358    4.103302   -1.358281
H     -3.995360    3.766453   -3.711437
H     -2.315693    2.037641   -4.304338
H     -1.233343    0.727215   -2.566415
H      3.213154   -2.997087   -2.307337
H      5.147364   -4.552797   -2.333186
H      6.399007   -4.973831   -0.210086
H      5.640633   -3.801129    1.860587
