34

O      3.064602   -0.214178   -2.059726
C      2.359497    0.240667   -1.166981
C      2.689254    1.483866   -0.432462
C      3.970275    2.171652   -0.687637
O      3.944378    3.481447   -0.362903
O      4.991650    1.683203   -1.132841
C      1.851153    1.984712    0.492152
C      0.599014    1.315204    0.800303
C     -0.301435    1.813563    1.741436
C     -1.490005    1.122012    2.008205
C     -1.795225   -0.075030    1.341678
N     -2.978026   -0.810351    1.573675
C     -4.197356   -0.080412    1.165250
C     -4.284561    0.071421   -0.348077
C     -3.051434   -1.362820    2.943250
C     -2.020416   -2.462233    3.164850
C     -0.884204   -0.566243    0.399757
C      0.293391    0.131561    0.143275
O      1.172221   -0.400878   -0.815796
H      4.845143    3.788306   -0.603297
H      2.083037    2.888620    1.047546
H     -0.095742    2.737057    2.276923
H     -2.178204    1.527864    2.744927
H     -4.268077    0.898270    1.655256
H     -5.077732   -0.652595    1.483565
H     -5.247811    0.510162   -0.627324
H     -4.193965   -0.899714   -0.845959
H     -3.497410    0.725673   -0.735750
H     -2.948100   -0.578984    3.703414
H     -4.040735   -1.813138    3.092496
H     -2.103555   -3.238919    2.397357
H     -0.998719   -2.070425    3.141108
H     -2.173495   -2.930092    4.142601
H     -1.099227   -1.490255   -0.129524
