40

C     -0.062876    4.417684    0.713057
C      0.413744    4.094725   -0.702126
C     -0.320017    2.887775   -1.309820
N      0.144892    1.617579   -0.749678
C     -0.690960    0.504185   -0.946745
O     -1.724197    0.606020   -1.609699
C     -0.320049   -0.742159   -0.299003
C      0.288862   -1.032946    0.910038
C      0.339150   -2.443587    1.019413
C     -0.255269   -2.940721   -0.119796
C     -0.543629   -4.311962   -0.606887
O     -1.660541   -4.817369    0.127116
C     -2.937030   -4.420626   -0.406816
C     -3.407396   -5.235561   -1.610227
F     -4.668901   -4.886552   -1.956385
F     -2.625135   -5.041379   -2.694256
F     -3.416023   -6.560469   -1.341280
O     -0.661628   -1.915162   -0.919302
C      1.606030    1.482770   -0.769964
C      2.288507    2.704422   -0.134635
C      3.799877    2.632529   -0.308352
O      1.841375    3.924409   -0.747926
H      0.035550    3.561005    1.386931
H      0.532182    5.231887    1.139809
H     -1.115311    4.718795    0.708335
H      0.195528    4.970953   -1.323877
H     -1.402658    2.988953   -1.172282
H     -0.124450    2.843482   -2.388963
H      0.631958   -0.308829    1.635861
H      0.734584   -3.031119    1.836805
H      0.311185   -4.960554   -0.388657
H     -0.711295   -4.340676   -1.686511
H     -2.941885   -3.351410   -0.643286
H     -3.660022   -4.567000    0.402808
H      1.888994    1.394922   -1.827272
H      1.938194    0.567789   -0.277374
H      2.066817    2.744082    0.937774
H      4.073934    2.640167   -1.369112
H      4.277745    3.507378    0.145722
H      4.211379    1.730581    0.154716
