38

C      4.066469    1.597700    2.140413
C      5.065793    2.688619    2.391919
C      4.621049    3.836843    1.866258
C      3.340204    3.614979    1.245903
C      2.979349    2.325211    1.381720
C      1.756407    1.669116    0.901789
C      0.765802    2.357623    0.194396
C     -0.383443    1.695973   -0.246076
C     -0.521688    0.345223    0.031995
N      0.408880   -0.362598    0.713814
C      1.512405    0.313514    1.124981
C     -1.680242   -0.436715   -0.382379
C     -2.836943   -0.114093   -1.069192
C     -3.616955   -1.292865   -1.191555
C     -2.934986   -2.320521   -0.568610
N     -1.761304   -1.783870   -0.101904
C     -3.279199   -3.702629   -0.405842
S     -4.274870   -4.534292   -1.550066
C     -4.183663   -6.031314   -0.706508
C     -3.429897   -5.893953    0.422466
S     -2.997123   -7.091019    1.696976
C     -2.150227   -5.750236    2.452513
C     -2.201560   -4.524575    1.777864
C     -2.944413   -4.592600    0.564766
H      3.697141    1.191914    3.087778
H      4.514628    0.799536    1.539870
H      5.999083    2.556502    2.918123
H      5.126805    4.790372    1.891743
H      2.790957    4.404295    0.756122
H      0.865682    3.415827   -0.028913
H     -1.144105    2.239648   -0.794351
H      2.220741   -0.309454    1.664134
H     -3.102221    0.863798   -1.448691
H     -4.581607   -1.374192   -1.676388
H     -1.020959   -2.284352    0.371164
H     -4.677435   -6.926521   -1.057953
H     -1.649772   -5.950839    3.390181
H     -1.727147   -3.635077    2.172875
