46

N     -4.143749    4.084931    1.679988
C     -3.191851    4.557224    1.211568
C     -1.996827    5.082086    0.634110
C     -1.062594    4.208271    0.202950
C      0.219251    4.477303   -0.423627
C      1.115681    3.552146   -0.806839
C      0.973561    2.103566   -0.650726
C      1.239938    1.493451    0.577467
C      1.083255    0.111764    0.725125
C      0.660565   -0.688323   -0.350806
N      0.494567   -2.113728   -0.195641
C      0.918620   -3.009356   -1.245965
C      2.116364   -2.786165   -1.948397
C      2.526474   -3.652680   -2.965236
C      1.745573   -4.756865   -3.297866
C      0.555650   -4.996465   -2.614898
C      0.145960   -4.130524   -1.597458
C     -0.098990   -2.643196    1.009676
C      0.409218   -3.805362    1.616725
C     -0.163969   -4.316403    2.784240
C     -1.255784   -3.674833    3.364146
C     -1.775485   -2.523007    2.778599
C     -1.201815   -2.011267    1.611637
C      0.401659   -0.059096   -1.581146
C      0.555673    1.322966   -1.730481
C     -1.853713    6.555052    0.548832
O     -0.867427    7.190312    0.221700
O     -2.984096    7.204866    0.883407
H     -1.288456    3.146537    0.326153
H      0.488322    5.514132   -0.614777
H      2.041724    3.870314   -1.282022
H      1.571594    2.085122    1.427508
H      1.310839   -0.342263    1.687026
H      2.750634   -1.940726   -1.692669
H      3.457952   -3.465345   -3.492905
H      2.064400   -5.430844   -4.088723
H     -0.058220   -5.855124   -2.873986
H     -0.795292   -4.326803   -1.089136
H      1.271803   -4.312101    1.190411
H      0.246152   -5.213436    3.240568
H     -1.702154   -4.072592    4.271843
H     -2.630602   -2.022491    3.225681
H     -1.635826   -1.121708    1.161334
H      0.055655   -0.643154   -2.431121
H      0.337887    1.781246   -2.692279
H     -2.760360    8.155227    0.787838
