45

C      3.741999    1.195047   -3.178210
C      4.492868    1.106631   -4.512550
C      3.704342    0.601078   -5.489185
C      2.425669    0.314635   -4.951770
C      1.257359   -0.197108   -5.424981
S      0.100210   -0.261395   -4.141708
C      1.201036    0.408542   -2.983787
C      2.409902    0.659844   -3.580966
C      0.774357    0.613715   -1.615018
C      0.418942   -0.432533   -0.723532
C      0.016985   -0.232507    0.645743
C     -0.061502    1.081403    1.234688
C      0.288001    2.100867    0.346127
C      0.315494    3.457251    0.560955
N      0.704568    4.055046   -0.617258
C      0.930178    3.099884   -1.583710
C      0.688041    1.874232   -1.011772
C     -0.475524    1.209082    2.614729
O     -0.581544    2.416678    3.223937
C     -1.002153    2.119812    4.493346
C     -1.304398    2.924432    5.609070
C     -1.691944    2.107332    6.651246
S     -1.675980    0.418577    6.275232
C     -1.144747    0.774973    4.665777
C     -0.802949    0.164868    3.443548
C     -0.753311   -1.171297    2.974182
C     -1.035829   -2.290751    3.666577
Si    -0.829630   -3.808076    2.607408
C     -0.329971   -2.692030    1.187124
C     -0.341058   -1.389628    1.546007
H      4.220362    0.567477   -2.421067
H      3.683676    2.232200   -2.837493
H      5.518207    1.418450   -4.637650
H      3.993653    0.439749   -6.517735
H      1.003907   -0.536823   -6.418766
H      0.465170   -1.446492   -1.115106
H      0.088894    4.060909    1.429389
H      0.798028    5.052900   -0.754834
H      1.229579    3.390160   -2.581926
H     -1.246668    4.003608    5.647752
H     -1.991019    2.412335    7.645237
H     -1.347870   -2.363989    4.695962
H     -2.112508   -4.505130    2.350758
H      0.288818   -4.669983    3.059439
H     -0.077191   -3.124610    0.233932
