39

C     -6.205238   -3.907039   -1.144498
C     -4.851731   -3.360786   -0.792331
C     -4.013741   -4.066753    0.098979
C     -2.729656   -3.602099    0.427191
C     -2.270149   -2.425864   -0.146334
C     -3.122524   -1.752843   -1.039993
C     -4.391499   -2.181916   -1.385777
C     -0.981700   -1.754509    0.039581
C      0.087199   -2.127347    0.838497
C      1.236990   -1.318700    0.861891
C      1.342514   -0.131044    0.095269
C      2.562385    0.691663    0.148250
C      3.825799    0.130793   -0.109514
C      4.993838    0.907543   -0.069845
C      6.331908    0.277812   -0.321305
C      4.898727    2.262921    0.258831
C      3.655796    2.837697    0.516809
C      2.498218    2.059097    0.458947
C      0.259947    0.243428   -0.711763
C     -0.856820   -0.574403   -0.713237
S     -2.325761   -0.304173   -1.642496
O     -3.004165    0.854693   -1.104005
O     -2.026060   -0.491384   -3.045312
H     -6.645252   -4.435603   -0.292391
H     -6.893839   -3.100366   -1.417112
H     -6.120775   -4.599758   -1.987378
H     -4.365397   -4.995315    0.547449
H     -2.117319   -4.171154    1.120308
H     -4.996773   -1.618799   -2.089419
H      0.054168   -3.025618    1.447731
H      2.066156   -1.615901    1.504163
H      3.901470   -0.926321   -0.359809
H      6.740154   -0.118626    0.613400
H      6.248750   -0.538334   -1.046690
H      7.036718    1.007443   -0.733741
H      5.792526    2.880321    0.313439
H      3.586900    3.893100    0.767621
H      1.540208    2.528334    0.674391
H      0.289594    1.137753   -1.327448
