38

Si     0.719055    1.342362    3.373943
C      1.656170    0.058993    2.398422
C      1.045384   -0.242055    1.231907
C      1.530471   -1.223597    0.227091
C      0.765210   -1.449990   -0.870788
C     -0.454559   -0.732624   -1.034925
O     -1.308988   -0.859870   -2.096296
C     -2.350579   -0.008432   -1.893829
C     -3.428780    0.145715   -2.764737
C     -4.421364    1.071304   -2.403561
C     -5.536358    1.286692   -3.221104
C     -6.490244    2.210202   -2.824003
N     -6.413786    2.925882   -1.684551
C     -5.329390    2.705600   -0.905483
C     -4.306356    1.802146   -1.202126
C     -3.196915    1.615421   -0.347554
C     -2.196903    0.689252   -0.701314
C     -0.975987    0.215214   -0.158196
C     -0.240803    0.504423    1.031578
C     -0.563535    1.359795    2.019968
C      2.807959   -1.977949    0.314138
N      2.811871   -3.243088   -0.124172
C      3.987821   -3.858295   -0.036724
N      5.116317   -3.328087    0.424903
C      4.993492   -2.064630    0.820751
N      3.879257   -1.338960    0.793430
H      1.447753    2.629118    3.474950
H      0.182384    0.808134    4.648158
H      2.577968   -0.345791    2.784275
H      1.049787   -2.148254   -1.651140
H     -3.480210   -0.434798   -3.678762
H     -5.667539    0.748024   -4.153929
H     -7.368479    2.402863   -3.433813
H     -5.306013    3.302172    0.003119
H     -3.117267    2.182632    0.573667
H     -1.431482    1.990610    2.096605
H      4.030182   -4.887986   -0.375407
H      5.885873   -1.579936    1.202114
