50

C     -0.456454   -1.192417   -6.553826
C     -1.488731   -1.779953   -5.586010
C     -1.184523   -1.482160   -4.302094
C      0.007656   -0.712756   -4.269268
C      0.466380   -0.522986   -5.593538
C      1.618556    0.210191   -5.646802
S      2.123926    0.655217   -4.054887
C      0.775959   -0.140347   -3.291817
C      0.628621   -0.137349   -1.869554
C      0.131864    0.994321   -1.311016
C     -0.020986    1.018207    0.099274
N     -0.558112    2.082054    0.750989
C     -0.538299    1.850735    2.110851
C     -1.027576    2.618157    3.165875
Si    -1.974207    4.204960    3.069239
C     -2.067146    4.194364    4.932704
C     -1.450403    3.131052    5.480821
C     -0.832766    2.199762    4.502232
C     -0.082067    1.048367    4.789323
C      0.208523    0.630005    6.108687
C      1.029610   -0.468323    6.365670
C      1.601482   -1.161214    5.310268
C      1.318780   -0.782117    3.997560
C      0.440117    0.282761    3.703429
C      0.126885    0.627809    2.336825
C      0.290634    0.045845    1.031984
C      0.691081   -1.226232    0.498095
C      0.782235   -2.418344    1.117725
Si     1.326465   -3.762690   -0.052668
C      1.271033   -2.520229   -1.434754
C      0.899648   -1.299793   -0.990471
H     -0.925215   -0.476622   -7.234668
H      0.045188   -1.985311   -7.115375
H     -2.344236   -2.356381   -5.904976
H     -1.749304   -1.777575   -3.428696
H      2.197094    0.510589   -6.508932
H     -0.121404    1.864053   -1.909654
H     -0.919604    2.915812    0.310616
H     -1.165888    5.329808    2.535579
H     -3.302535    4.052941    2.424632
H     -2.573814    4.980648    5.470733
H     -1.403605    2.959352    6.546582
H     -0.187424    1.170991    6.963452
H      1.244656   -0.758396    7.390506
H      2.280410   -1.987525    5.502372
H      1.845933   -1.295912    3.202430
H      0.556150   -2.651462    2.143407
H      0.305541   -4.827236   -0.205730
H      2.700617   -4.239693    0.235210
H      1.455999   -2.814738   -2.455870
