50

C      2.887194    1.655651    4.702051
C      4.218193    1.185877    5.235880
C      4.750656    0.207078    4.491001
C      3.824594   -0.053503    3.407723
C      3.891377   -0.947370    2.379461
N      2.916719   -1.051262    1.445880
C      1.804148   -0.270766    1.471229
C      1.678090    0.694810    2.535896
C      2.713870    0.779178    3.496387
C      0.475561    1.465081    2.471112
C      0.120862    2.448625    3.367240
S     -1.386176    3.171947    2.989944
C     -1.583540    2.172001    1.615107
C     -0.526693    1.303658    1.443785
C     -0.424048    0.369856    0.399251
C     -1.466545    0.235813   -0.631213
C     -1.368914   -0.649171   -1.640844
C     -2.479531   -0.686251   -2.591765
C     -3.677353   -1.423834   -2.422733
C     -4.750337   -1.442580   -3.383107
C     -4.737634   -0.731353   -4.606842
C     -3.552282   -0.020922   -4.748293
C     -3.207034    0.770157   -5.813060
N     -1.952582    1.278297   -5.543457
C     -1.501723    0.820689   -4.322686
C     -2.480895    0.007548   -3.805943
C     -0.199723   -1.514193   -1.700486
C     -0.005493   -2.445203   -2.658638
Si     1.589158   -3.356736   -2.422580
C      1.881737   -2.309986   -0.912737
C      0.886480   -1.424747   -0.681564
C      0.783362   -0.419175    0.446991
H      2.103681    1.479181    5.444449
H      2.947258    2.712416    4.426682
H      4.677915    1.602041    6.121470
H      5.686468   -0.304611    4.646722
H      4.730191   -1.623160    2.255376
H      0.634574    2.816403    4.239408
H     -2.477991    2.298195    1.022926
H     -2.337703    0.878412   -0.577620
H     -3.797006   -2.017500   -1.515889
H     -5.627445   -2.047244   -3.149724
H     -5.548731   -0.754660   -5.319826
H     -3.719340    1.022605   -6.731180
H     -1.435198    1.897214   -6.153793
H     -0.530967    1.115443   -3.946929
H     -0.659146   -2.673118   -3.486197
H      1.386148   -4.789983   -2.097617
H      2.567182   -3.088005   -3.505486
H      2.782348   -2.469850   -0.346846
