21

C      0.436798   -1.799858   -0.470906
C      0.401328   -1.825441    0.931413
C      0.978036   -0.736688    1.581753
N      1.136497   -0.403522    2.897448
N      1.768463    0.772054    3.044879
N      2.036439    1.234314    1.829610
C      1.562417    0.330735    0.916182
C      1.588958    0.341948   -0.485798
C      1.021331   -0.738185   -1.185763
C      1.037437   -0.737688   -2.639882
C      1.039157    0.333955   -3.564661
N      1.073455   -0.077815   -4.834841
N      1.101851   -1.415051   -4.730379
C      1.081886   -1.860593   -3.439821
H     -0.020112   -2.630921   -1.006156
H     -0.055459   -2.648746    1.469645
H      0.850149   -0.909974    3.725805
H      2.057405    1.176432   -0.995813
H      1.011468    1.397589   -3.364623
H      1.138580   -1.962957   -5.583728
H      1.114647   -2.917565   -3.218957
