47

C     -4.441015   -1.925010   -1.142866
C     -3.400397   -2.446492   -0.145418
C     -4.057196   -2.826426    1.186545
C     -2.623176   -3.628091   -0.730512
C     -3.100073   -4.868238   -1.132332
C     -2.186878   -5.795067   -1.638821
C     -0.822434   -5.478218   -1.737458
C     -0.346443   -4.227828   -1.331577
C     -1.251405   -3.306516   -0.829403
C     -1.045557   -1.958911   -0.342790
C      0.117687   -1.208779   -0.241780
C      0.067285    0.105315    0.267868
C      1.303483    0.912641    0.368851
C      1.310606    2.292814    0.157125
C      2.545849    2.930915    0.281611
N      2.887817    4.254389    0.135624
C      4.232752    4.436837    0.354225
C      5.008552    5.593498    0.316938
C      6.354440    5.404438    0.591755
N      6.926911    4.215146    0.879830
C      6.150433    3.103620    0.909704
C      4.776917    3.186027    0.646887
C      3.710026    2.235314    0.597932
C      3.621064    0.853580    0.788504
N      2.430476    0.214780    0.667496
C     -1.190025    0.614070    0.680530
C     -2.365904   -0.139379    0.581433
C     -2.282536   -1.422163    0.066046
H     -3.981728   -1.650277   -2.100411
H     -5.206791   -2.680774   -1.352289
H     -4.951730   -1.034879   -0.757753
H     -4.556637   -1.965220    1.645168
H     -3.321056   -3.200661    1.908596
H     -4.810208   -3.611241    1.050543
H     -4.153060   -5.118434   -1.056982
H     -2.534102   -6.774303   -1.960035
H     -0.127464   -6.214924   -2.133491
H      0.709873   -3.993219   -1.410166
H      1.068930   -1.630544   -0.556076
H      0.414714    2.839798   -0.107905
H      2.239655    4.992648   -0.098983
H      4.601514    6.570270    0.091287
H      7.040114    6.248307    0.586385
H      6.654317    2.173142    1.145022
H      4.474070    0.231755    1.034935
H     -1.259672    1.611789    1.109372
H     -3.313640    0.274889    0.909503
