41

C      1.036487    1.860976    7.285985
O     -0.034801    1.395746    6.471769
C      0.269170    1.072568    5.175220
C     -0.832113    0.736880    4.381729
C     -0.666310    0.392245    3.035905
C      0.612630    0.363063    2.474409
C      0.796815   -0.005298    1.079048
N      0.586297    0.769761    0.029149
N      0.942505    0.068918   -1.101392
C      1.339389   -1.126240   -0.723808
S      1.922834   -2.400905   -1.736294
C      1.370779   -1.843213   -3.373320
C     -0.064498   -2.216361   -3.666797
C     -0.385020   -3.498997   -4.131990
C     -1.711431   -3.840037   -4.409967
C     -2.732350   -2.907315   -4.216028
C     -2.436042   -1.625930   -3.738545
C     -3.542517   -0.633519   -3.526473
C     -1.102269   -1.288573   -3.467922
N      1.255467   -1.231690    0.641749
N      1.602732   -2.360907    1.463076
C      1.715988    0.699673    3.268847
C      1.545422    1.052353    4.613704
H      0.619223    2.165478    8.249274
H      1.762125    1.060218    7.472365
H      1.521998    2.740885    6.841996
H     -1.829310    0.750403    4.813475
H     -1.540101    0.152428    2.432930
H      1.530077   -0.766162   -3.504062
H      2.015451   -2.324697   -4.118135
H      0.397117   -4.239815   -4.281910
H     -1.951010   -4.834594   -4.777296
H     -3.762065   -3.184688   -4.439781
H     -4.033785   -0.407862   -4.479987
H     -3.165081    0.306686   -3.111641
H     -4.282068   -1.032947   -2.822843
H     -0.865947   -0.293014   -3.095948
H      2.440029   -2.170138    2.004159
H      0.864758   -2.559605    2.133394
H      2.717151    0.705624    2.843319
H      2.428487    1.308261    5.191089
