36

O     -2.001852   -3.699828   -0.753325
C     -1.849149   -2.702580   -0.055045
C     -2.828786   -2.363809    1.007813
C     -3.945447   -3.178234    1.223185
C     -4.853300   -2.851028    2.229261
C     -4.640869   -1.719869    3.018055
C     -3.523518   -0.907675    2.800692
C     -2.616234   -1.211271    1.781147
N     -1.465227   -0.431224    1.588016
C     -0.548117   -0.672522    0.552662
C      0.563760    0.159561    0.373307
C      1.520930   -0.102668   -0.625597
C      2.680259    0.785748   -0.810627
C      2.497774    2.159713   -1.066848
C      3.573526    3.041101   -1.250792
C      4.847141    2.483112   -1.165612
N      6.108125    2.995827   -1.284601
N      7.050790    2.054006   -1.118811
N      6.427704    0.904146   -0.890652
C      5.078828    1.138771   -0.915426
C      3.991095    0.272758   -0.735485
C      1.346716   -1.236496   -1.437207
C      0.253242   -2.086381   -1.258169
C     -0.684008   -1.805744   -0.261770
H     -4.103526   -4.064366    0.612645
H     -5.721613   -3.482215    2.402380
H     -5.344417   -1.473118    3.809875
H     -3.369190   -0.040470    3.436943
H     -1.462117    0.491771    2.002335
H      0.699943    1.017772    1.027947
H      1.486816    2.561107   -1.140532
H      3.412697    4.094493   -1.452342
H      6.397987    3.947433   -1.471773
H      4.176489   -0.777228   -0.531719
H      2.065207   -1.465125   -2.222894
H      0.135570   -2.962945   -1.891450
