26

C      1.097852    3.261055    3.874694
C      0.713597    2.175617    2.913261
C      0.958097    2.322909    1.543976
C      0.568210    1.328558    0.641988
C      0.047349    1.031417    3.363998
C     -0.343092    0.036656    2.462546
C     -0.081669    0.172295    1.091572
C     -0.479544   -0.881774    0.139452
C     -0.010501   -2.132213    0.312234
C     -0.443158   -3.136136   -0.694830
N     -1.216092   -2.924211   -1.712799
C     -1.668320   -1.643715   -1.859824
N     -2.454835   -1.147799   -2.789933
C     -2.569398    0.160574   -2.444253
N     -1.903938    0.538395   -1.355135
N     -1.315617   -0.622176   -0.959753
H      1.993808    3.788340    3.530521
H      1.325241    2.845575    4.862058
H      0.279329    3.980648    3.973299
H      1.450123    3.216843    1.166504
H      0.770686    1.474243   -0.417425
H     -0.177966    0.909236    4.421300
H     -0.867332   -0.836646    2.844171
H      0.652217   -2.444646    1.108064
H     -0.050524   -4.154346   -0.533018
H     -3.161514    0.868877   -3.010079
