41

C     -2.464653    4.592983    1.652601
C     -3.396680    5.765177    1.575369
C     -4.272890    5.575175    0.581246
C     -4.005530    4.311791   -0.057145
C     -2.959835    3.700439    0.531028
C     -2.495046    2.436886    0.089482
C     -2.863822    1.559201   -0.905302
C     -1.979089    0.448027   -0.862215
C     -1.856353   -0.700027   -1.648124
C     -0.832999   -1.618091   -1.372829
C      0.085388   -1.488581   -0.308179
C     -0.111434   -0.334514    0.535343
C      0.763229   -0.292481    1.645201
C      0.676315    0.602753    2.689921
S      1.908825    0.393455    3.860141
C      2.532188   -0.964437    3.032010
C      1.822884   -1.255372    1.884559
C      2.111179   -2.373324    1.055528
C      3.186731   -3.289640    1.327497
C      3.471728   -4.400731    0.535758
C      2.629457   -4.583978   -0.573385
N      2.754044   -5.596424   -1.445354
S      1.562614   -5.398196   -2.571285
N      0.841046   -4.027853   -2.003544
C      1.485739   -3.634443   -0.887994
C      1.182732   -2.468771   -0.060120
C     -1.101839    0.629254    0.207262
N     -1.413650    1.872687    0.722792
H     -2.546349    4.093272    2.623081
H     -1.429743    4.906669    1.482988
H     -3.358901    6.625620    2.225910
H     -5.063812    6.248083    0.286228
H     -4.588630    3.944192   -0.888556
H     -3.670336    1.702431   -1.612060
H     -2.527223   -0.873018   -2.485080
H     -0.795779   -2.467086   -2.047525
H     -0.042285    1.375811    2.893402
H      3.379223   -1.471649    3.469083
H      3.832426   -3.137280    2.190378
H      4.285829   -5.080373    0.755418
H     -0.885022    2.343419    1.436599
