46

Si     3.485712   -3.703196   -2.506300
C      5.344961   -3.670108   -2.817028
C      5.911293   -2.570604   -2.286572
C      4.994918   -1.665323   -1.610370
C      3.707102   -2.064299   -1.592771
C      2.587910   -1.340888   -1.028334
C      1.969149   -0.243668   -1.670838
C      0.861033    0.476607   -1.124853
C      0.262962    0.174941    0.121048
C     -0.865967    0.910625    0.655486
C     -2.117380    0.486007    1.060007
C     -2.844907    1.622551    1.487888
C     -2.034297    2.732209    1.336608
N     -0.839088    2.276048    0.827798
C     -2.267676    4.132556    1.625734
C     -1.363535    4.966565    2.331166
C     -1.604091    6.357622    2.617080
C     -2.766570    7.060946    2.225988
C     -3.633428    6.225634    1.533670
C     -4.843695    6.589620    1.003115
N     -5.362911    5.469186    0.389639
C     -4.495348    4.404644    0.521929
C     -3.411953    4.843082    1.245235
C      0.886306   -0.902724    0.776830
C      0.536723   -1.370006    2.023311
S      1.530242   -2.679418    2.518744
C      2.457186   -2.617839    1.075131
C      2.012496   -1.633115    0.222417
H      2.714918   -3.567342   -3.767615
H      3.103302   -4.820148   -1.606529
H      5.839916   -4.461782   -3.356675
H      6.969799   -2.348558   -2.345829
H      5.353326   -0.744201   -1.166483
H      2.346884    0.072740   -2.644228
H      0.449491    1.292378   -1.720394
H     -2.472068   -0.536744    1.044375
H     -3.855880    1.631901    1.874836
H     -0.049315    2.866674    0.607981
H     -0.434269    4.535209    2.703738
H     -0.840180    6.899546    3.175833
H     -2.935836    8.105072    2.445052
H     -5.384540    7.525869    0.993627
H     -6.248929    5.433754   -0.097113
H     -4.736370    3.445763    0.084320
H     -0.242020   -1.019552    2.686430
H      3.279554   -3.308183    0.948646
