22

C      4.155525   -1.408172    0.814809
C      3.644419   -0.688678    1.892382
C      2.317062   -0.244600    1.887749
C      1.493116   -0.530775    0.779296
C      2.034911   -1.252950   -0.283257
C      3.359956   -1.704988   -0.295823
N      1.040041   -1.395267   -1.221746
C     -0.123303   -0.792201   -0.804946
C     -1.368007   -0.695618   -1.438684
C     -2.385226   -0.011782   -0.766253
C     -2.164029    0.551375    0.488335
C     -0.912997    0.444984    1.106966
C      0.130417   -0.239855    0.449900
H      5.189565   -1.744794    0.836752
H      4.280364   -0.468656    2.746226
H      1.926325    0.315694    2.731689
H      3.761800   -2.265727   -1.133294
H      1.149280   -1.878582   -2.100520
H     -1.544273   -1.132928   -2.415903
H     -3.364233    0.081355   -1.230909
H     -2.968963    1.079002    0.993882
H     -0.748745    0.886793    2.085059
