39

C      4.162361   -3.227015   -2.825482
C      4.331503   -3.232572   -1.456661
C      3.267060   -2.477484   -0.963956
C      2.935711   -2.148026    0.383516
C      3.640601   -2.535175    1.484883
S      2.865268   -1.902885    2.884556
C      1.625987   -1.143229    1.947241
C      1.778508   -1.352989    0.592105
C      0.921232   -0.855096   -0.405413
C     -0.224420   -0.071393   -0.241893
O     -0.756774    0.379510    0.931176
C     -1.876966    1.110341    0.642581
C     -2.062107    1.126704   -0.725796
C     -1.007017    0.371131   -1.304107
C     -0.643198    0.022478   -2.618002
C      0.499058   -0.762857   -2.831157
C      1.282170   -1.204150   -1.748832
C      2.445782   -2.004894   -1.975044
N      3.035033   -2.492475   -3.127913
C     -2.572681    1.669261    1.791699
C     -2.133487    1.479249    3.125542
C     -2.791623    2.011693    4.259519
C     -3.955663    2.787758    4.170050
C     -4.452726    3.019062    2.866056
N     -5.549809    3.734061    2.573954
S     -5.703597    3.707091    0.924413
N     -4.389544    2.789775    0.503874
C     -3.755332    2.453178    1.643216
H      4.744799   -3.681360   -3.615967
H      5.126991   -3.724901   -0.914470
H      4.537519   -3.132255    1.565249
H      0.862281   -0.588036    2.470708
H     -2.861917    1.622797   -1.257048
H     -1.240709    0.357802   -3.461248
H      0.759302   -1.018852   -3.854370
H      2.687222   -2.332373   -4.062511
H     -1.233544    0.887829    3.303146
H     -2.373405    1.808326    5.245980
H     -4.451376    3.190457    5.045207
