45

C      7.064514   -1.351512   -0.831150
C      5.623881   -0.972225   -0.834865
C      4.967100   -0.085685   -0.007022
C      3.564328    0.018583   -0.294019
C      2.633494    0.904666    0.404134
O      2.967942    2.056795    0.675110
N      1.375038    0.409894    0.737190
C      0.405820    1.358159    1.285922
C     -0.939923    0.712655    1.676569
N     -1.378695   -0.272079    0.677171
C     -2.723965   -0.775385    0.968146
C     -3.313686   -1.516111   -0.200655
C     -4.315219   -1.120123   -1.004491
C     -5.003920    0.172090   -0.945254
C     -4.303424    1.374802   -1.097249
C     -4.979654    2.595666   -1.061550
C     -6.362265    2.621637   -0.885539
C     -7.069138    1.427908   -0.746804
C     -6.392759    0.206271   -0.780656
C     -0.379508   -1.348069    0.503567
C      1.054695   -0.998766    0.961728
C      3.237362   -0.757403   -1.392019
S      4.562827   -1.656808   -1.987195
H      7.537966   -1.088199   -1.782533
H      7.182614   -2.427569   -0.667070
H      7.604110   -0.830117   -0.033601
H      5.458876    0.472609    0.781957
H      0.847127    1.842756    2.165109
H      0.246460    2.133668    0.526475
H     -0.845160    0.232016    2.659481
H     -1.679574    1.515418    1.783074
H     -3.380936    0.057193    1.244997
H     -2.711647   -1.439697    1.842146
H     -2.894737   -2.503363   -0.382346
H     -4.664979   -1.789812   -1.787315
H     -3.225064    1.365753   -1.244364
H     -4.426730    3.524214   -1.176227
H     -6.888998    3.571914   -0.860698
H     -8.147761    1.447259   -0.614808
H     -6.956482   -0.716979   -0.672308
H     -0.673997   -2.264107    1.031591
H     -0.347575   -1.592102   -0.565338
H      1.772344   -1.677458    0.498886
H      1.142947   -1.161814    2.044055
H      2.273718   -0.839834   -1.877043
