42

C      3.245422    0.952310    6.672134
C      4.452126    0.970852    6.011244
S      4.195211    0.739483    4.335164
C      2.490294    0.628081    4.612232
N      2.134295    0.761397    5.877969
C      1.572788    0.374356    3.488113
C      1.691999    0.999818    2.250917
C      0.790812    0.722935    1.185626
C      0.839330    1.388791   -0.075896
C      1.742704    2.459007   -0.336483
C      1.718286    3.202384   -1.513639
C      0.763478    2.916002   -2.461954
C     -0.114103    1.854108   -2.244044
C     -0.066576    1.009452   -1.105877
C     -0.957221   -0.120690   -0.947036
C     -1.137742   -0.597538    0.374328
C     -2.238170   -1.450553    0.624167
C     -3.097186   -1.907225   -0.372494
C     -2.836600   -1.643605   -1.703691
C     -3.690738   -2.255623   -2.661896
C     -3.492976   -2.192611   -4.042866
C     -2.323936   -1.525778   -4.442937
N     -1.903204   -1.433559   -5.713901
S     -0.446587   -0.651441   -5.669607
N     -0.302383   -0.379919   -4.047266
C     -1.411165   -0.846931   -3.441942
C     -1.713768   -0.808405   -2.014221
C     -0.228396   -0.222332    1.420812
C     -0.258196   -0.776030    2.719423
N      0.591214   -0.506683    3.736956
H      3.116288    1.070739    7.741521
H      5.442656    1.101261    6.421749
H      2.492778    1.719037    2.128508
H      2.480344    2.769712    0.397166
H      2.416361    4.020815   -1.662672
H      0.685255    3.510561   -3.367892
H     -0.890674    1.721288   -2.993047
H     -2.483924   -1.774165    1.633064
H     -3.934625   -2.537847   -0.076355
H     -4.547472   -2.839871   -2.316893
H     -4.150689   -2.680685   -4.751784
H     -0.993160   -1.520877    3.008318
