40

C     -0.215317    0.844407    0.185887
C      0.355201    0.689818    1.584970
C      0.278406   -0.611025    1.927389
C     -0.311589   -1.386306    0.856649
C     -0.606310   -0.559000   -0.166186
C     -1.220305   -1.029216   -1.414833
C     -1.526386   -0.143005   -2.488265
N     -1.322812    1.186444   -2.546961
S     -1.865559    1.701261   -4.025029
N     -2.390287    0.270803   -4.677543
C     -2.158879   -0.675255   -3.754845
C     -2.458745   -2.048000   -3.904216
C     -2.137885   -2.881452   -2.817614
C     -1.543392   -2.412626   -1.614582
C     -1.221801   -3.339604   -0.488898
C     -1.438010   -4.672145   -0.459081
Si    -0.873189   -5.421246    1.164238
C     -0.349357   -3.716995    1.705054
C     -0.599992   -2.799892    0.749675
C      0.887821    1.710542    2.424135
S      1.527476    1.424784    4.035546
C      1.931324    3.085451    4.318322
C      1.582201    3.783691    3.222354
N      1.727887    5.125976    3.027880
C      1.204762    5.271390    1.745075
C      0.769674    4.035695    1.219389
C      1.022189    3.043784    2.206438
H      0.550068    1.230710   -0.495518
H     -1.084070    1.511016    0.201806
H      0.597330   -1.060084    2.855441
H     -2.911908   -2.432487   -4.810274
H     -2.367413   -3.940090   -2.928933
H     -1.870234   -5.302935   -1.217147
H     -2.007178   -5.952239    1.957892
H      0.272975   -6.344020    0.983771
H      0.093299   -3.549255    2.673741
H      2.382684    3.426369    5.238963
H      2.116446    5.810708    3.664512
H      1.181178    6.256470    1.296855
H      0.328220    3.896719    0.241355
