32

C     -4.202447    0.253805   -5.470491
C     -3.449449    0.041964   -4.191553
C     -2.127856   -0.407868   -4.210122
C     -1.419933   -0.573405   -3.014552
C     -2.004792   -0.287203   -1.771894
N     -1.238076   -0.471871   -0.611483
C     -1.570159   -0.260274    0.704154
C     -0.767462   -0.484401    1.750959
N      0.516008   -0.961376    1.695740
C      0.844825   -0.996853    2.947376
C      2.090487   -1.417553    3.509648
C      2.542613   -1.494785    4.815256
C      3.869223   -1.987547    4.761473
C      4.149564   -2.182082    3.430667
O      3.082112   -1.840957    2.665641
O     -0.076951   -0.594291    3.863837
C     -1.180258   -0.236273    3.153349
O     -2.233652    0.181664    3.588081
C     -3.323643    0.178748   -1.767389
C     -4.037350    0.346283   -2.961260
H     -3.873292   -0.453084   -6.239392
H     -4.041966    1.273083   -5.834978
H     -5.275888    0.095428   -5.322579
H     -1.636368   -0.634287   -5.153380
H     -0.393853   -0.929714   -3.065096
H     -0.295875   -0.834016   -0.747488
H     -2.571701    0.121346    0.877684
H      1.979909   -1.226752    5.699521
H      4.538604   -2.177629    5.589016
H      5.016156   -2.538569    2.890653
H     -3.828848    0.424796   -0.839401
H     -5.059034    0.717076   -2.917799
