38

C      2.390668    3.696251    3.657853
C      1.619142    4.975580    3.490050
C      0.699658    4.810191    2.530597
C     -0.276398    5.738369    2.019439
C     -1.101854    5.308536    1.044874
C     -1.026443    3.946483    0.502536
C     -0.125197    3.025621    0.931749
C     -0.153045    1.733019    0.320312
C     -1.150256    0.778451    0.356716
C     -0.841957   -0.413874   -0.381036
C     -1.612673   -1.592247   -0.561638
C     -1.126920   -2.653144   -1.325150
C      0.135507   -2.539172   -1.912423
C      0.731258   -3.534530   -2.699858
O      0.191089   -4.748913   -3.015725
C      1.096777   -5.397616   -3.792455
C      2.215778   -4.620711   -3.984110
C      1.989111   -3.408474   -3.278800
C      2.699817   -2.225721   -3.065006
N      2.167975   -1.230936   -2.310029
C      0.934946   -1.394941   -1.762740
C      0.420661   -0.330562   -0.983453
S      1.165946    1.187899   -0.625980
C      0.781606    3.453864    1.994101
C      1.752620    2.790585    2.641435
H      2.273004    3.296195    4.669212
H      3.452389    3.845306    3.440529
H      1.790443    5.873520    4.062679
H     -0.330352    6.744297    2.417376
H     -1.852941    5.970604    0.625043
H     -1.735297    3.714230   -0.288553
H     -2.075045    0.922979    0.903063
H     -2.594308   -1.670490   -0.098963
H     -1.723772   -3.551699   -1.458055
H      0.804248   -6.384555   -4.123778
H      3.087977   -4.893701   -4.561010
H      3.685512   -2.040982   -3.476987
H      2.047836    1.766496    2.471811
