38

C      4.509805    0.829639   -0.106623
N      3.142221    0.401482    0.167373
C      2.863499   -0.361515    1.315454
C      3.798571   -0.673428    2.313357
C      3.443916   -1.447496    3.426422
C      2.143503   -1.922373    3.567285
C      1.193942   -1.616022    2.598791
C      1.552598   -0.838677    1.493048
O      0.541469   -0.578632    0.594829
C      0.787039    0.334535   -0.417017
C     -0.324476    0.713933   -1.203346
C     -1.678553    0.184343   -0.961029
C     -2.313980   -0.618864   -1.928686
C     -3.601895   -1.141404   -1.742511
C     -4.227610   -0.820869   -0.539470
N     -5.444138   -1.132174   -0.001538
N     -5.613328   -0.582734    1.212009
N     -4.508948    0.096972    1.496942
C     -3.644254   -0.033284    0.442263
C     -2.356595    0.480885    0.238683
C     -0.116301    1.633785   -2.241151
C      1.149986    2.161282   -2.481031
C      2.236205    1.771126   -1.693405
C      2.085626    0.842089   -0.654198
H      4.717165    1.788186    0.380861
H      5.251720    0.096711    0.227978
H      4.706505    0.929059   -1.179584
H      4.820662   -0.313623    2.263995
H      4.188355   -1.674385    4.185654
H      1.868583   -2.521958    4.430638
H      0.172709   -1.972593    2.701079
H     -1.787227   -0.857472   -2.852787
H     -4.072992   -1.763069   -2.495697
H     -6.189780   -1.695995   -0.389291
H     -1.897005    1.096007    1.006058
H     -0.950820    1.958153   -2.859834
H      1.292690    2.885118   -3.279699
H      3.196019    2.228131   -1.910004
