42

C      0.500850   -1.669904    0.481847
C      1.851648   -1.807990    1.175404
C      2.235819   -0.632283    1.713442
C      1.207064    0.350962    1.432068
N      1.271742    1.626331    1.825149
C      0.204013    2.385491    1.459809
C     -0.924855    1.952267    0.726668
C     -2.032612    2.815149    0.368646
Si    -2.290676    4.666625    0.748206
C     -3.936871    4.609286   -0.159724
C     -4.226576    3.393759   -0.657660
C     -3.189814    2.409532   -0.372090
C     -3.150857    1.070479   -0.726707
C     -4.087433    0.359943   -1.433451
N     -3.615903   -0.929790   -1.539926
C     -2.393047   -1.046279   -0.910204
C     -2.075221    0.186422   -0.392083
C     -0.912334    0.564452    0.343956
C      0.179233   -0.229501    0.712369
C      2.609327   -3.068385    1.232695
C      3.863825   -3.189587    1.885359
C      4.617738   -4.386453    1.958663
C      4.194151   -5.591229    1.384844
C      2.950832   -5.554323    0.714555
N      2.376503   -6.601461    0.102968
S      0.946034   -6.052768   -0.524593
N      0.987198   -4.466745   -0.051865
C      2.133318   -4.276640    0.629448
H     -0.252928   -2.305264    0.957037
H      0.586102   -1.869625   -0.590769
H      3.124487   -0.380740    2.265461
H      0.292538    3.415212    1.796769
H     -1.291364    5.521070    0.060798
H     -2.450913    4.920649    2.201136
H     -4.549208    5.494044   -0.243300
H     -5.121731    3.148980   -1.211304
H     -5.036996    0.636695   -1.870182
H     -4.096242   -1.684913   -2.012050
H     -1.885913   -2.000312   -0.903263
H      4.298682   -2.315768    2.371721
H      5.571832   -4.367144    2.486710
H      4.779285   -6.500692    1.447189
