28

O     -1.457235   -1.174217    0.489342
C     -0.812325   -0.360753   -0.422441
C     -0.100459    0.747951   -0.123014
C      0.129447    1.312018    1.250046
C      0.900555    2.484836    1.400796
C      1.148222    3.056213    2.655123
C      0.629687    2.468905    3.801126
C     -0.133679    1.313786    3.688696
C     -0.378752    0.745680    2.430547
O      0.522733    1.516532   -1.112410
C      0.423167    1.155824   -2.428177
C      1.067902    1.965194   -3.363477
C      1.002367    1.648214   -4.722392
C      0.292837    0.522929   -5.146221
C     -0.352116   -0.286773   -4.210933
C     -0.280364    0.039238   -2.853446
C     -0.941729   -0.782677   -1.842280
O     -1.587894   -1.789693   -2.118207
H     -1.872614   -1.880363   -0.052243
H      1.330477    2.985533    0.535727
H      1.747074    3.960167    2.729520
H      0.818653    2.907851    4.776705
H     -0.545028    0.844902    4.579233
H     -0.982280   -0.155401    2.416928
H      1.621214    2.842060   -3.037103
H      1.505154    2.279412   -5.451699
H      0.242590    0.277251   -6.204541
H     -0.905607   -1.164081   -4.538438
