45

Si    -1.994015    1.507409    0.170342
C     -0.170644    1.007209    0.110622
C      0.632700    2.073392    0.298189
C     -0.051293    3.339971    0.513246
C     -1.401017    3.288534    0.491132
C     -2.309415    4.422292    0.616717
C     -2.147599    5.601345   -0.148264
C     -3.005499    6.722844   -0.054498
C     -4.104807    6.774089    0.816659
C     -4.321055    5.628474    1.618641
N     -5.310559    5.483015    2.513300
S     -5.114698    3.980751    3.188749
N     -3.774268    3.444365    2.375465
C     -3.409803    4.421568    1.525649
C      0.252454   -0.345935   -0.175859
C      0.909864   -0.739336   -1.364390
C      1.324117   -2.088220   -1.645144
C      1.134922   -3.198031   -0.771175
C      1.570077   -4.560938   -1.059274
C      2.853787   -4.834775   -1.532713
C      3.211054   -6.151735   -1.814690
C      2.280167   -7.163326   -1.623337
C      1.026694   -6.813147   -1.154464
N      0.655342   -5.545512   -0.871491
C      0.494294   -2.778605    0.405076
C      0.175759   -3.543663    1.501933
N     -0.416759   -2.716563    2.428082
C     -0.465387   -1.425178    1.951155
C      0.080544   -1.432910    0.689251
H     -2.657715    1.390913   -1.155302
H     -2.704522    0.890538    1.319636
H      1.715034    2.025286    0.287826
H      0.522810    4.245828    0.667492
H     -1.322419    5.654869   -0.860639
H     -2.802986    7.586070   -0.689309
H     -4.753794    7.639261    0.879054
H      1.108737    0.016705   -2.124754
H      1.803769   -2.264910   -2.609198
H      3.575732   -4.036295   -1.671056
H      4.207740   -6.382656   -2.179075
H      2.523954   -8.198340   -1.833427
H      0.260527   -7.564856   -0.988540
H      0.307911   -4.597334    1.709056
H     -0.756671   -3.012792    3.333466
H     -0.879420   -0.635139    2.562614
