47

N      0.002448    2.562810    0.575003
C     -0.303201    1.267654    0.265535
C      0.302599    0.428267   -0.651184
C      1.476520    0.774853   -1.425829
C      1.370221    1.011510   -2.801088
C      2.503302    1.349441   -3.543739
C      3.744624    1.451284   -2.916024
C      3.855741    1.216621   -1.545775
C      2.724084    0.879819   -0.801014
C     -0.514782   -0.727086   -0.698288
C     -0.334908   -1.961312   -1.537323
N      0.768008   -2.798444   -1.024558
C      1.081942   -3.894184   -1.966777
C      0.039369   -5.026217   -1.983723
O     -0.171477   -5.565058   -0.673770
C     -0.571567   -4.536716    0.242757
C      0.466213   -3.403076    0.294300
N     -1.568727   -0.623807    0.122566
N     -1.365350    0.534493    0.814345
C     -2.202150    0.835402    1.932543
C     -3.400112    0.121221    2.102771
C     -4.238150    0.391061    3.187273
C     -3.882117    1.363124    4.118699
C     -2.683287    2.058532    3.973289
C     -1.841711    1.794141    2.888113
H     -0.765708    3.188762    0.813037
H      0.665379    3.034180   -0.041167
H      0.406640    0.941738   -3.299461
H      2.418086    1.533092   -4.611548
H      4.626977    1.711434   -3.495296
H      4.823481    1.291128   -1.056550
H      2.818720    0.692308    0.266364
H     -0.101881   -1.636119   -2.559161
H     -1.280547   -2.512332   -1.600284
H      1.230343   -3.501710   -2.979733
H      2.047478   -4.318993   -1.662600
H     -0.919546   -4.688633   -2.392811
H      0.396257   -5.842658   -2.619944
H     -0.659918   -4.998128    1.231716
H     -1.565419   -4.170177   -0.037071
H      1.407689   -3.820348    0.676149
H      0.164653   -2.647819    1.027396
H     -3.700830   -0.642986    1.388478
H     -5.166972   -0.161332    3.303828
H     -4.531883    1.568861    4.965397
H     -2.393076    2.798176    4.715496
H     -0.890210    2.315391    2.846873
