37

C      0.514640   -4.293584    0.545957
C      1.183450   -3.478774    1.642164
C      1.307628   -1.991700    1.306873
C     -0.042536   -1.282740    1.190526
N      0.195385    0.180044    0.996375
C     -0.227131    0.678029   -0.285647
C     -1.564563    0.944180   -0.589225
C     -1.923299    1.351778   -1.875929
C     -0.952156    1.464798   -2.870036
C      0.377022    1.158687   -2.583027
C      0.735516    0.752903   -1.296659
S     -0.130570    1.121557    2.379554
O     -1.537949    1.448147    2.422061
O      0.490488    0.450573    3.502728
N      0.755857    2.523888    2.094165
C      2.217220    2.388586    2.041142
C      0.215106    3.537993    1.181927
H     -0.534765   -4.011757    0.419918
H      0.542939   -5.358241    0.799395
H      1.027269   -4.159672   -0.411816
H      0.630239   -3.604916    2.580072
H      2.189202   -3.881732    1.811039
H      1.872130   -1.869777    0.374065
H      1.906200   -1.511565    2.090935
H     -0.613544   -1.693717    0.349657
H     -0.650678   -1.465758    2.084177
H     -2.340998    0.834978    0.163202
H     -2.963804    1.570895   -2.103134
H     -1.234675    1.777969   -3.872272
H      1.132193    1.228122   -3.361718
H      1.770328    0.501099   -1.081267
H      2.534776    1.920184    1.105678
H      2.592368    1.803460    2.885241
H      2.685018    3.376418    2.108349
H      0.586950    3.400217    0.163722
H     -0.877587    3.540661    1.169155
H      0.526599    4.529744    1.526853
