24

C      3.323013   -2.670557   -3.471316
C      4.283363   -1.777482   -3.064826
O      3.757001   -0.875012   -2.199340
C      2.429173   -1.179815   -2.034253
C      2.131246   -2.287828   -2.810034
C      1.554371   -0.428060   -1.180735
C      1.883656    0.675674   -0.417829
C      0.677023    1.033123    0.228214
S      0.045577    2.200786    1.332972
C     -1.531058    1.466377    1.237744
C     -2.685975    1.881971    1.913522
C     -3.830356    1.138938    1.680260
N     -3.895879    0.068746    0.863448
C     -2.776698   -0.328308    0.213005
C     -1.570730    0.358814    0.383863
C     -0.281972    0.164893   -0.159267
O      0.227685   -0.751528   -1.030590
H      3.463311   -3.493741   -4.157531
H      5.334167   -1.653610   -3.287203
H      1.160326   -2.758725   -2.883239
H      2.852782    1.147304   -0.343513
H     -2.687297    2.735022    2.580863
H     -4.766226    1.399677    2.168441
H     -2.874238   -1.193647   -0.433931
