44

O      4.765584    5.695856    1.149685
C      4.053085    4.518073    0.787204
C      3.134803    4.048216    1.931982
C      3.908920    3.845204    3.235486
N      2.378974    2.858606    1.541668
C      2.914397    1.479937    1.680083
C      1.889622    0.728370    0.927629
C      0.960840    1.583149    0.401051
N      0.029808    0.892902   -0.297866
C     -1.082387    1.345762   -0.996770
C     -1.873186    0.457818   -1.620761
C     -1.552479   -0.969932   -1.554321
C     -2.385151   -1.984824   -2.224585
C     -3.279594   -2.770536   -1.486599
C     -4.071866   -3.724798   -2.127640
C     -3.976882   -3.897179   -3.508139
C     -3.091791   -3.115643   -4.250029
C     -2.298753   -2.160489   -3.611182
C     -0.464460   -1.397343   -0.870779
C      0.384166   -0.460632   -0.203047
C      1.546460   -0.585798    0.560560
C      2.264524   -1.837294    0.906673
C      1.240977    2.937462    0.722304
O      0.657838    3.940986    0.349888
H      5.210413    6.016170    0.345825
H      4.782651    3.742327    0.530468
H      3.462819    4.735796   -0.109705
H      2.404854    4.848641    2.110953
H      4.712898    3.111219    3.115098
H      3.243875    3.486830    4.028810
H      4.358992    4.782737    3.577643
H      3.898968    1.422160    1.208992
H      2.951323    1.207232    2.737228
H     -1.265842    2.413467   -1.005659
H     -2.752311    0.772674   -2.173057
H     -3.365410   -2.639337   -0.410282
H     -4.764494   -4.331410   -1.550061
H     -4.594736   -4.639788   -4.006584
H     -3.019226   -3.248946   -5.326263
H     -1.611297   -1.556054   -4.198564
H     -0.212648   -2.452859   -0.818705
H      2.597405   -2.351480   -0.000584
H      3.146351   -1.631774    1.521877
H      1.610232   -2.511795    1.468162
