32

C     -0.635882   -4.488998    0.683138
C      0.140276   -5.099490    1.836151
C      0.811321   -4.149673    2.515598
C      0.543031   -2.895361    1.892921
C     -0.280443   -3.051667    0.842351
C     -0.631643   -1.854479    0.123037
C     -0.060596   -0.738843    0.635369
Si     1.024498   -1.162289    2.154747
C     -0.245920    0.564462    0.111773
C      0.273541    1.796741    0.531439
C     -0.241970    2.735952   -0.348750
C     -1.048539    2.134069   -1.281689
C     -1.735801    2.792244   -2.327757
C     -1.617323    4.196757   -2.472907
C     -0.790634    4.766193   -1.506487
C     -0.473591    6.096443   -1.374182
O      0.370757    6.278031   -0.301316
C      0.599829    5.045015    0.264633
C     -0.099031    4.135672   -0.460658
O     -1.054286    0.799288   -1.002976
H     -0.292858   -4.890940   -0.274571
H     -1.709767   -4.659754    0.801647
H      0.143431   -6.154410    2.066953
H      1.440862   -4.306551    3.378178
H     -1.288366   -1.874309   -0.737202
H      0.487036   -0.557370    3.401692
H      2.461716   -0.879387    1.901696
H      0.935991    1.964718    1.367668
H     -2.350245    2.216577   -3.013350
H     -2.123268    4.745184   -3.256650
H     -0.733801    6.998366   -1.910136
H      1.251333    5.030228    1.125700
