31

C     -3.136760    2.742716    0.817467
O     -1.761631    2.378859    0.656259
C     -0.975524    3.395020    0.209142
O     -1.379727    4.520874   -0.042635
C      0.456774    2.984572    0.052067
C      1.313007    3.995402   -0.432218
C      2.670900    3.755953   -0.627796
C      3.190726    2.501465   -0.343295
C      2.357191    1.487218    0.138031
C      0.986954    1.704576    0.348380
N      0.142259    0.675191    0.831959
C      0.470695   -0.602300    1.257467
O      1.606721   -1.053855    1.325626
N     -0.674730   -1.302343    1.601588
C     -0.668219   -2.588816    2.083864
C      0.330868   -3.479953    2.388384
C     -0.196637   -4.716331    2.870026
C     -1.574334   -4.709925    2.911521
S     -2.221707   -3.219073    2.372176
H     -3.568395    3.043708   -0.142187
H     -3.676676    1.863356    1.179390
H     -3.237536    3.540878    1.559518
H      0.920994    4.985702   -0.662013
H      3.317842    4.545569   -1.001704
H      4.249169    2.301352   -0.494540
H      2.819980    0.524689    0.335061
H     -0.828429    0.941127    0.941916
H     -1.582137   -0.890840    1.452490
H      1.388562   -3.274190    2.278055
H      0.407135   -5.564155    3.169669
H     -2.231732   -5.506433    3.231974
