44

O     -2.143689    0.136323    0.707829
C     -0.917775    0.125816    0.847786
C     -0.323050   -0.482988    2.052057
N      0.913359   -0.187537    2.507417
O      1.105588   -0.936202    3.657988
C     -0.010464   -1.650375    3.897119
C     -0.955471   -1.398320    2.939229
C     -2.290519   -2.047004    2.952222
C     -2.568629   -2.694120    4.329941
C     -1.343959   -3.446382    4.898778
C     -0.115871   -2.528148    5.077861
N     -0.097205    0.691494   -0.132024
C      1.360143    0.517025   -0.237872
C      1.874064    0.596777   -1.690074
N      1.433704    1.830813   -2.387496
C      1.582906    1.747021   -3.779367
C      0.508222    1.781681   -4.678839
C      0.710523    1.683539   -6.060924
C      1.997035    1.549633   -6.572931
C      3.080534    1.512969   -5.702860
C      2.871318    1.609353   -4.323730
C      0.239481    2.488912   -1.821193
C     -0.728922    1.472394   -1.200093
H     -3.082192   -1.324595    2.728281
H     -2.317038   -2.821643    2.176651
H     -3.419476   -3.379392    4.243503
H     -2.860313   -1.911818    5.042911
H     -1.087534   -4.265054    4.213598
H     -1.600076   -3.904371    5.860815
H     -0.244188   -1.913445    5.975919
H      0.788665   -3.130834    5.207438
H      1.650840   -0.454226    0.172152
H      1.822260    1.309396    0.362253
H      2.968845    0.543923   -1.675664
H      1.500257   -0.284855   -2.229225
H     -0.515180    1.858705   -4.326230
H     -0.142009    1.708290   -6.734522
H      2.154081    1.475851   -7.645374
H      4.090455    1.416540   -6.091488
H      3.736185    1.602550   -3.664847
H     -0.278004    3.127094   -2.545565
H      0.588327    3.168401   -1.032481
H     -1.078999    0.760059   -1.956550
H     -1.605541    1.994849   -0.801382
