31

C     -3.361825   -0.176122    0.628780
N     -2.407456    0.714657    0.007754
N     -2.879289    1.848379   -0.558945
C     -1.809342    2.414298   -1.137082
C     -0.643213    1.602405   -0.885821
C      0.656838    1.870151   -1.316452
C      0.720434    3.063556   -2.064551
C     -0.411252    3.891835   -2.337417
C     -1.716369    3.600636   -1.884240
C     -1.049121    0.532919   -0.120970
C     -0.300968   -0.561170    0.420871
C     -0.396531   -1.159606    1.668090
C      0.571815   -2.196053    1.721433
C      1.216745   -2.165093    0.494410
C      2.248587   -3.026491    0.130506
C      2.637098   -3.971047    1.086256
C      2.013857   -4.032760    2.335887
C      0.977107   -3.149519    2.671597
O      0.699525   -1.179833   -0.284738
H     -4.362430    0.042333    0.245110
H     -3.332593   -0.008967    1.707870
H     -3.104483   -1.209006    0.383059
H      1.522630    1.253980   -1.115410
H      1.689224    3.374115   -2.457596
H     -0.257807    4.796517   -2.925769
H     -2.570830    4.229499   -2.089814
H     -1.073437   -0.874034    2.460129
H      2.720676   -2.962096   -0.842088
H      3.439341   -4.667753    0.851592
H      2.338134   -4.776607    3.060953
H      0.501911   -3.205313    3.646235
