36

C     -3.370423   -1.506346    3.050567
O     -2.273557   -2.213587    2.485242
C     -1.038745   -1.619674    2.556979
C     -0.819242   -0.292906    2.942617
C      0.476476    0.231733    2.961589
C      1.555164   -0.564910    2.587237
Br     3.305159    0.146957    2.638484
C      1.353814   -1.884009    2.190128
C      0.057989   -2.419736    2.176393
C     -0.124533   -3.824904    1.783165
C     -0.011120   -4.324831    0.542721
C      0.277480   -3.556182   -0.689869
O      1.125396   -3.948581   -1.480907
N     -0.520322   -2.461176   -0.876795
C     -0.311801   -1.545170   -1.969334
C      0.531627   -0.379465   -1.546809
C     -0.032140    0.785826   -1.019695
C      0.793800    1.837485   -0.633831
C      2.162189    1.686153   -0.783562
N      2.744285    0.573511   -1.276923
C      1.919204   -0.436449   -1.636869
H     -4.247675   -2.158779    3.003769
H     -3.189634   -1.266263    4.103568
H     -3.594895   -0.605255    2.470915
H     -1.633658    0.362940    3.231771
H      0.633589    1.262643    3.268289
H      2.202486   -2.497430    1.894869
H     -0.349260   -4.497485    2.607859
H     -0.086783   -5.395156    0.380350
H     -1.169725   -2.200807   -0.146306
H      0.146979   -2.061544   -2.820398
H     -1.297924   -1.198984   -2.298459
H     -1.108895    0.878911   -0.909622
H      0.381964    2.753178   -0.226037
H      2.848568    2.477405   -0.496925
H      2.421963   -1.325898   -2.011733
