28

F      6.142944   -1.847957    2.223990
C      4.898988   -1.564193    1.817750
C      3.852301   -2.402241    2.180274
C      2.551155   -2.109538    1.758051
C      4.671543   -0.437346    1.040337
C      3.372140   -0.143760    0.617844
C      2.293307   -0.974900    0.970153
C      0.936976   -0.654676    0.520159
N      0.662047    0.422719   -0.233280
N     -0.680599    0.341004   -0.417941
C     -1.396402    1.305870   -1.175957
C     -2.784550    1.182390   -1.341370
C     -3.485957    2.133613   -2.087910
C     -2.804194    3.203349   -2.666673
Cl    -3.671121    4.371955   -3.584752
C     -1.425118    3.333259   -2.507076
C     -0.717638    2.385574   -1.761769
N     -1.296712   -0.718350    0.165674
C     -0.274742   -1.340802    0.754031
H      4.054512   -3.278146    2.789070
H      1.753716   -2.784099    2.057861
H      5.501497    0.206209    0.766584
H      3.207162    0.743366    0.008317
H     -3.331910    0.353238   -0.896130
H     -4.561096    2.033455   -2.213069
H     -0.894954    4.167776   -2.958869
H      0.358619    2.501785   -1.646904
H     -0.459327   -2.246680    1.313791
