35

C     -0.206913   -3.925376    0.327219
C     -1.321695   -4.740812    0.958382
C     -2.140335   -4.015694    1.739695
C     -1.638092   -2.670525    1.690168
C     -0.494145   -2.547905    0.871330
C      0.218248   -1.321148    0.636851
C      1.341749   -1.229559   -0.180829
N      2.039045   -0.090406   -0.426805
C      1.634318    1.064489    0.165952
C      0.519740    1.105292    0.998626
C     -0.190132   -0.088362    1.237035
C     -1.345304   -0.245958    2.053170
C     -2.026112    0.694965    2.781476
O     -3.084149    0.106580    3.424276
C     -3.080086   -1.225286    3.102964
C     -2.031216   -1.482227    2.265252
C      2.446179    2.260911   -0.144230
C      2.637600    3.299083    0.786916
C      3.404274    4.426870    0.473310
C      4.000923    4.539679   -0.778863
C      3.836944    3.523990   -1.715187
C      3.070856    2.398162   -1.398226
H      0.770837   -4.286926    0.658149
H     -0.284096   -3.945381   -0.763596
H     -1.431531   -5.802734    0.784852
H     -2.998774   -4.353837    2.295124
H      1.740492   -2.102815   -0.690667
H      0.190094    2.036601    1.443527
H     -1.916903    1.756132    2.953312
H     -3.869598   -1.814975    3.546271
H      2.206923    3.234985    1.783450
H      3.540026    5.212832    1.211820
H      4.598691    5.413898   -1.022350
H      4.305566    3.600932   -2.692697
H      2.958129    1.613443   -2.145251
