31

N      1.311087   -3.551139    0.306436
C      1.029377   -2.612015   -0.314895
C      0.700764   -1.463801   -1.113635
C      1.309995   -1.329064   -2.371072
C      1.019157   -0.233628   -3.184085
C      0.116737    0.732555   -2.749298
C     -0.493771    0.606595   -1.499979
C     -0.208067   -0.485864   -0.659156
C     -0.882633   -0.581778    0.641107
C     -2.105286   -1.278910    0.729011
C     -2.777902   -1.396717    1.933330
C     -2.251477   -0.819650    3.083438
C     -1.031318   -0.116549    3.008916
S     -0.247583    0.654598    4.328906
C      1.033251    1.183331    3.358942
N      2.035263    1.904653    3.906291
C      2.998120    2.265752    3.040403
C      3.011531    1.958921    1.694972
C      1.954865    1.216254    1.171855
C      0.906316    0.797526    2.028455
C     -0.316891    0.025632    1.810046
H      2.013857   -2.081354   -2.724489
H      1.493154   -0.136886   -4.158311
H     -0.115963    1.585486   -3.383041
H     -1.198914    1.371700   -1.176683
H     -2.533359   -1.739153   -0.160485
H     -3.716708   -1.943101    1.983168
H     -2.776418   -0.913203    4.031093
H      3.808279    2.843167    3.479733
H      3.827121    2.288838    1.060722
H      1.958140    0.973896    0.115265
