44

Si     0.736097   -0.910668   -4.674881
C      2.144936   -0.054925   -3.812258
C      1.978544   -0.040414   -2.472342
C      2.910818    0.562095   -1.511885
C      2.609387    0.475032   -0.195794
C      1.389324   -0.192817    0.313307
C      1.158613   -0.236673    1.693401
C      0.035896   -0.842468    2.237782
N     -0.081465   -0.825297    3.570766
C     -1.167226   -1.409339    4.118402
C     -2.179643   -2.031586    3.399379
C     -3.280589   -2.617675    4.051675
C     -4.289876   -3.238754    3.322232
C     -4.206871   -3.278817    1.937712
C     -3.114541   -2.697684    1.284749
C     -2.066488   -2.055886    1.993549
C     -0.919336   -1.440780    1.384851
C     -0.681192   -1.393898   -0.014333
C      0.456053   -0.780496   -0.557323
C      0.739772   -0.714538   -2.007457
C     -0.026917   -1.222636   -2.995555
C      4.110808    1.244605   -1.853874
S      5.716713    0.684040   -1.495063
C      6.482545    2.052293   -2.254784
C      5.507563    2.850436   -2.738187
C      5.346109    4.058588   -3.433602
C      3.960077    4.218273   -3.561281
O      3.215862    3.197961   -2.997895
C      4.223053    2.412324   -2.522051
H     -0.083501    0.008357   -5.500771
H      1.149498   -2.168860   -5.341892
H      2.962640    0.367075   -4.374619
H      3.263207    0.913745    0.554079
H      1.873665    0.215239    2.378213
H     -1.197366   -1.357907    5.204131
H     -3.356311   -2.592258    5.136952
H     -5.136743   -3.688917    3.833324
H     -4.990319   -3.761586    1.358756
H     -3.099245   -2.757195    0.199999
H     -1.397234   -1.844869   -0.692153
H     -0.961111   -1.752146   -2.916268
H      7.558060    2.151938   -2.282680
H      6.100956    4.738451   -3.801108
H      3.359715    4.993786   -4.018930
