42

C      5.261375    4.324914    3.080000
C      4.306937    3.277978    2.582536
C      4.306731    1.989012    3.160145
C      3.449772    0.975762    2.700342
C      2.589693    1.245666    1.646315
C      2.622816    2.534283    1.083441
C      3.453499    3.554710    1.510725
C      1.619046    0.358263    1.001493
C      1.320952   -0.963574    1.290382
C      0.342123   -1.625716    0.528440
C     -0.353863   -0.987554   -0.529035
C     -1.371831   -1.713968   -1.306537
C     -2.437582   -2.371327   -0.670484
C     -3.423162   -3.072616   -1.396425
C     -4.547289   -3.758137   -0.649896
F     -4.634313   -5.088332   -0.931790
F     -4.426532   -3.681463    0.706612
F     -5.769384   -3.231272   -0.939371
C     -1.309300   -1.770471   -2.704638
C     -2.276147   -2.457693   -3.443060
C     -3.340032   -3.108919   -2.804147
C     -4.357649   -3.842912   -3.635747
C     -0.049973    0.349500   -0.818554
C      0.918135    0.972688   -0.049894
S      1.460483    2.636238   -0.233424
O      0.384671    3.517504    0.164671
O      2.182595    2.747574   -1.482130
H      4.859269    5.330292    2.916519
H      6.218136    4.237332    2.556192
H      5.433411    4.214862    4.155812
H      4.984950    1.767939    3.983690
H      3.476464   -0.001058    3.173974
H      3.435024    4.526704    1.027532
H      1.828315   -1.498080    2.088082
H      0.127878   -2.669379    0.759182
H     -2.511998   -2.327797    0.417014
H     -0.493581   -1.284380   -3.237518
H     -2.187972   -2.479371   -4.528024
H     -5.366531   -3.479585   -3.417764
H     -4.303627   -4.918002   -3.438983
H     -4.183619   -3.692355   -4.706638
H     -0.557497    0.892997   -1.610332
