33

C     -1.798365   -2.465520    0.663016
C     -1.466740   -1.198300   -0.128132
C     -2.545777   -0.126315    0.024088
N     -0.132401   -0.681141    0.163400
C      0.897670   -0.542346   -0.750988
N      0.732076   -0.795056   -2.071873
C      1.827901   -0.431906   -2.974457
C      1.786092    1.064087   -3.302288
O      0.548677    1.384584   -3.948888
N      2.000857   -0.141371   -0.163957
C      1.681358    0.036397    1.153820
C      2.497444    0.475422    2.208065
C      1.945693    0.595426    3.487389
C      0.605598    0.284538    3.712269
C     -0.222128   -0.157903    2.672885
C      0.346178   -0.276516    1.395995
H     -2.730664   -2.909743    0.297448
H     -1.928004   -2.269552    1.730719
H     -1.004991   -3.213107    0.553670
H     -1.471119   -1.499293   -1.181263
H     -2.300046    0.761090   -0.569692
H     -3.513914   -0.504306   -0.321640
H     -2.667559    0.192805    1.063286
H     -0.156425   -0.527434   -2.490824
H      2.803028   -0.715242   -2.561648
H      1.688357   -1.003509   -3.899206
H      2.602901    1.323133   -3.982838
H      1.869996    1.675638   -2.398396
H      0.542543    2.351382   -4.058389
H      3.537792    0.716533    2.021073
H      2.569364    0.935005    4.310461
H      0.194324    0.385689    4.714610
H     -1.261471   -0.393858    2.868608
