40

C     -1.780856   -0.325123   -1.861574
C     -2.825044   -1.224537   -1.833637
C     -3.675729   -1.391366   -2.937838
C     -3.505997   -0.669515   -4.088775
C     -2.470640    0.232356   -4.136538
C     -1.622683    0.397073   -3.032703
C     -0.588809    1.306419   -3.096865
C      0.273836    1.494188   -2.013106
C      0.076276    0.754305   -0.873133
C     -0.948231   -0.166493   -0.770464
C     -1.178411   -0.959138    0.421155
C     -0.390062   -0.838769    1.508754
B      0.774801    0.145632    1.501176
C      1.686259    0.459272    2.708112
C      1.566073   -0.190518    3.970220
C      1.942207    0.540928    5.105893
C      1.970544   -0.019882    6.364202
C      1.622694   -1.337614    6.536808
C      1.259054   -2.041719    5.423468
C      1.224896   -1.490527    4.132577
C      2.581778    1.447807    2.505884
C      2.713908    2.179497    1.264904
C      1.980990    1.973098    0.189210
N      0.984072    0.976055    0.215467
H     -2.972607   -1.793512   -0.949891
H     -4.475892   -2.107235   -2.863331
H     -4.164673   -0.792342   -4.956392
H     -2.303890    0.818845   -5.022950
H     -0.483693    1.859064   -4.020021
H      1.026026    2.218660   -2.187390
H     -1.945298   -1.676169    0.557980
H     -0.612987   -1.402117    2.400622
H      2.224868    1.587341    5.050929
H      2.263546    0.553381    7.240823
H      1.652481   -1.749184    7.529500
H      0.980917   -3.078716    5.529926
H      0.979811   -2.180225    3.307988
H      3.244981    1.696592    3.338349
H      3.495256    2.969523    1.234017
H      2.143824    2.551661   -0.680738
