43

C     -2.174439    4.151780   -0.512162
C     -2.833568    3.867760    0.795570
C     -2.612821    2.589033    1.146205
C     -3.073915    1.885964    2.347173
C     -3.847810    2.524405    3.325969
C     -4.248405    1.802853    4.432501
N     -3.934567    0.511754    4.624359
C     -3.184240   -0.081961    3.660580
C     -2.711808    0.528663    2.492511
C     -1.881452   -0.182698    1.458772
C     -1.532668   -1.530558    1.618748
C     -0.762938   -2.212480    0.677553
C     -0.301120   -1.563418   -0.482510
C      0.496379   -2.101431   -1.549544
C      0.768881   -1.190649   -2.541402
S      0.065034    0.311365   -2.177673
C     -0.631976   -0.213605   -0.678892
C     -1.422557    0.496694    0.280064
C     -1.802783    1.923276    0.122679
C     -1.549578    2.831199   -0.839249
C      1.550352   -1.416382   -3.729715
S      1.071377   -0.818171   -5.288356
C      2.433159   -1.512340   -6.091104
C      3.223660   -2.176773   -5.195924
C      4.494535   -2.954840   -5.225982
C      4.636733   -3.312482   -3.744505
C      3.610416   -2.815555   -3.017045
C      2.718545   -2.115767   -3.873582
H     -2.906843    4.441251   -1.271286
H     -1.416315    4.934023   -0.413090
H     -3.394702    4.607445    1.343746
H     -4.140384    3.563848    3.240903
H     -4.848778    2.259114    5.213940
H     -2.977552   -1.120690    3.894554
H     -1.846385   -2.107025    2.483697
H     -0.518749   -3.259326    0.846208
H      0.840046   -3.128447   -1.577892
H     -0.987011    2.705811   -1.746889
H      2.564885   -1.387303   -7.156665
H      5.337631   -2.344668   -5.561462
H      4.405746   -3.857010   -5.837403
H      5.463502   -3.881995   -3.346667
H      3.489171   -2.919686   -1.948134
