39

C      4.139970    0.786622    1.303520
C      2.758032    0.927223    0.739080
C      1.729337    1.875687    0.633293
C      0.680380    1.260589   -0.055315
N      1.078990   -0.030143   -0.383006
C      2.318021   -0.208218    0.113170
C      3.303034   -1.226036    0.166816
N      3.181653   -2.445664   -0.348659
C      4.253534   -3.253579   -0.176111
C      5.419952   -2.826295    0.506726
C      6.642438   -3.530369    0.786067
C      7.554803   -2.771297    1.481286
S      6.966127   -1.206074    1.811370
C      5.470714   -1.520671    1.023967
C      4.385561   -0.667510    0.862230
C     -0.623380    1.793660   -0.457595
C     -0.634354    2.829326   -1.404651
C     -1.835987    3.359988   -1.861335
C     -3.041600    2.861179   -1.374931
C     -3.065090    1.834023   -0.418888
C     -4.292349    1.350586    0.065486
C     -4.339241    0.341074    1.025716
C     -3.158096   -0.195309    1.519878
C     -1.930156    0.273031    1.047258
C     -1.847996    1.287270    0.062263
H      4.149768    0.873035    2.392613
H      4.849862    1.466520    0.826571
H      1.721343    2.890070    1.010757
H      0.532825   -0.709126   -0.897883
H      4.166429   -4.251800   -0.593195
H      6.835908   -4.552977    0.485022
H      8.542526   -3.062443    1.812232
H      0.302323    3.217372   -1.799522
H     -1.833447    4.158050   -2.598777
H     -3.971050    3.287480   -1.746915
H     -5.229283    1.763773   -0.302353
H     -5.297222   -0.018770    1.391160
H     -3.185884   -0.974339    2.277154
H     -1.025119   -0.156733    1.471800
