45

O     -2.527401   -3.194149   -2.827080
C     -1.685865   -2.869031   -3.941825
C     -0.209283   -2.671465   -3.506713
C      0.338439   -3.881813   -2.734081
N     -0.033515   -1.422413   -2.768214
C     -0.354490   -1.292080   -1.318006
C     -0.226303    0.172334   -1.167804
C      0.041911    0.761968   -2.370154
N      0.127263    2.107400   -2.227614
C      0.312697    3.101901   -3.186133
C      0.385987    4.384711   -2.791552
C      0.321204    4.706416   -1.363802
O      0.531819    6.046617   -1.119492
C      0.891333    6.398420    0.228822
C      0.128335    3.733795   -0.436705
C     -0.023550    2.373004   -0.853186
C     -0.302567    1.179097   -0.192620
C     -0.587125    1.071685    1.225421
C      0.224247    0.284026    2.047536
C     -0.067179    0.172048    3.412095
C     -1.167996    0.843341    3.958924
C     -1.986512    1.623217    3.141629
C     -1.694138    1.738455    1.779652
C      0.119304   -0.191161   -3.418351
O      0.253519    0.006624   -4.614560
H     -3.451697   -3.150132   -3.147920
H     -2.075588   -1.954923   -4.415736
H     -1.764232   -3.689048   -4.661102
H      0.380499   -2.560435   -4.427638
H     -0.216706   -4.070636   -1.805479
H      1.394119   -3.728515   -2.469695
H      0.275301   -4.786991   -3.344771
H     -1.376145   -1.641683   -1.116063
H      0.389937   -1.846631   -0.728192
H      0.387767    2.792047   -4.227744
H      0.526696    5.188768   -3.505667
H      1.852776    5.908516    0.502912
H      1.044170    7.477136    0.262408
H      0.097324    6.151649    0.964676
H      0.077630    3.944586    0.639753
H      1.089956   -0.236685    1.636007
H      0.566475   -0.442422    4.055380
H     -1.391686    0.749082    5.022423
H     -2.852176    2.142276    3.558679
H     -2.335751    2.342277    1.143119
