23

C      3.649226   -0.297427    1.992558
C      3.797164    0.758148    1.114977
N      2.811964    1.194398    0.302583
C      1.625184    0.554577    0.363081
C      0.581322    0.965814   -0.453370
C     -0.663139    0.329025   -0.423367
C     -1.750107    0.770068   -1.278337
C     -1.980178    2.014070   -1.914069
N     -3.102860    2.027166   -2.636867
N     -3.596488    0.790896   -2.474655
C     -2.825462   -0.000301   -1.670936
C     -0.799993   -0.729321    0.466142
N      0.184503   -1.172671    1.283992
C      1.369269   -0.534097    1.223542
C      2.415167   -0.941625    2.036482
H      4.468640   -0.614465    2.627538
H      4.736891    1.297961    1.037548
H      0.765662    1.796923   -1.129139
H     -1.378895    2.913807   -1.876892
H     -4.464060    0.553649   -2.945105
H     -3.110802   -1.023421   -1.472043
H     -1.735282   -1.272797    0.568486
H      2.263191   -1.776278    2.715563
