45

C     -0.534754   -0.673957    3.347436
C      0.269524   -1.113701    2.098782
C      0.241474   -2.656631    1.977859
C      1.736481   -0.670332    2.288132
C      2.499016   -1.109002    3.390982
C      3.827210   -0.713249    3.556501
C      4.422480    0.121969    2.619664
C      3.685951    0.563785    1.522110
C      2.344041    0.190066    1.359264
N      1.644988    0.603369    0.219235
C      0.292024    0.331161   -0.013498
C     -0.327693    0.839017   -1.167305
C     -1.667297    0.553974   -1.473970
C     -2.302205    1.099614   -2.679747
C     -3.500687    1.801910   -2.632719
N     -4.139284    2.326844   -3.707317
C     -3.598122    2.174024   -4.915801
N     -4.236333    2.694789   -5.965902
C     -3.701264    2.546178   -7.197334
C     -2.518867    1.881210   -7.449140
C     -1.846883    1.336677   -6.366199
C     -2.383692    1.479495   -5.078321
C     -1.742271    0.945314   -3.948285
C     -2.374048   -0.275048   -0.595763
C     -1.758974   -0.806450    0.541910
C     -0.415424   -0.518831    0.848547
H     -0.127686   -1.094948    4.273350
H     -0.529734    0.418055    3.454293
H     -1.581769   -0.993094    3.300889
H     -0.778146   -3.045805    1.880403
H      0.677493   -3.148644    2.854425
H      0.805683   -2.993285    1.099081
H      2.065631   -1.772047    4.135893
H      4.396194   -1.064552    4.413314
H      5.459384    0.424025    2.737570
H      4.168551    1.203046    0.787946
H      2.031021    1.400087   -0.269077
H      0.246974    1.478581   -1.834051
H     -4.007425    1.983400   -1.687159
H     -4.275339    2.995060   -8.003379
H     -2.133941    1.790054   -8.458299
H     -0.912808    0.804658   -6.525797
H     -0.810490    0.395516   -4.063828
H     -3.411293   -0.537079   -0.797906
H     -2.346916   -1.458549    1.183859
