33

C     -1.660144   -4.073772    3.087660
C     -2.445673   -2.813010    3.392035
O     -2.014248   -1.791084    2.485448
C     -2.645982   -0.585623    2.657677
O     -3.515491   -0.395627    3.501363
C     -2.182701    0.434901    1.729476
N     -2.767998    1.673590    1.673850
N     -2.182945    2.372426    0.715707
N     -1.150896    1.647203    0.211684
C     -0.244730    2.239723   -0.713756
C      1.005725    1.674284   -0.990728
C      1.876354    2.284948   -1.905344
C      1.512168    3.468985   -2.545076
O      2.265089    4.158953   -3.453474
C      3.543524    3.623794   -3.771126
C      0.275266    4.045147   -2.253508
C     -0.596389    3.444703   -1.339985
C     -1.187758    0.357142    0.761461
N     -0.413064   -0.695037    0.357979
H     -1.954311   -4.887877    3.755888
H     -1.823925   -4.389214    2.051891
H     -0.585631   -3.894713    3.199480
H     -2.253882   -2.498430    4.423964
H     -3.516045   -3.002583    3.254332
H      1.362586    0.787531   -0.475747
H      2.838548    1.815133   -2.082383
H      4.189735    3.594602   -2.887600
H      3.454053    2.633159   -4.229051
H      4.011487    4.288169   -4.503955
H     -0.013994    4.974416   -2.739428
H     -1.551077    3.929585   -1.141907
H     -0.652088   -1.616473    0.733275
H     -0.170895   -0.768898   -0.630385
