43

C      6.194730    2.898664    2.354202
C      4.789133    3.322430    2.691505
C      3.645575    2.512735    2.174604
C      3.831883    1.380131    1.375143
C      2.726411    0.653612    0.914601
C      1.422946    1.039629    1.252894
C      0.240131    0.320672    0.762788
C      0.159260   -1.016664    0.660018
N     -0.898328   -1.825045    0.221024
C     -0.936817   -3.206106    0.634760
C     -1.392966   -4.209248   -0.239944
C     -1.431875   -5.550012    0.153822
C     -1.017266   -5.913845    1.431980
C     -0.564688   -4.938872    2.316783
C     -0.524472   -3.598238    1.921767
C     -1.907509   -1.285598   -0.650538
C     -1.568470   -0.511258   -1.773532
C     -2.556866    0.001700   -2.617845
C     -3.900690   -0.253184   -2.354152
C     -4.257865   -1.022205   -1.249136
C     -3.269294   -1.535672   -0.405807
C      1.242123    2.183457    2.038425
C      2.343484    2.911035    2.500858
O      4.574241    4.317681    3.380577
H      6.900900    3.591507    2.822603
H      6.351888    2.934192    1.273124
H      6.393640    1.897837    2.746024
H      4.822779    1.040970    1.088268
H      2.898061   -0.211773    0.277577
H     -0.618148    0.938759    0.511911
H      1.010184   -1.617950    0.974856
H     -1.706547   -3.954006   -1.249605
H     -1.783966   -6.307591   -0.541399
H     -1.049062   -6.955973    1.738891
H     -0.248232   -5.217843    3.318466
H     -0.192802   -2.855250    2.642917
H     -0.524605   -0.319353   -2.008495
H     -2.274974    0.595939   -3.483036
H     -4.669504    0.146023   -3.010610
H     -5.305315   -1.222070   -1.039413
H     -3.566313   -2.123557    0.459687
H      0.241482    2.516840    2.307128
H      2.176927    3.792974    3.117364
