41

C     -1.615071    3.543307   -2.361621
O     -1.300459    2.296614   -1.754635
C     -1.394420    2.218531   -0.384333
C     -1.815053    3.258882    0.446333
C     -1.878787    3.069932    1.830488
Cl    -2.408717    4.400025    2.800074
C     -1.524931    1.842346    2.405634
C     -1.583328    1.611397    3.889840
C     -1.103118    0.799906    1.562515
C     -1.034736    0.975815    0.177335
N     -0.618524   -0.033375   -0.718361
C     -0.243855   -1.330997   -0.448280
O     -0.190005   -1.843737    0.665779
C      0.148383   -2.165045   -1.631222
C      0.922028   -3.307979   -1.375294
C      1.346336   -4.129951   -2.418832
C      1.010151   -3.819727   -3.737143
C      0.235896   -2.691531   -4.021128
O     -0.132196   -2.298401   -5.282750
C      0.412785   -3.019323   -6.379860
C     -0.217957   -1.882156   -2.959085
O     -0.977847   -0.768537   -3.242873
C     -2.347910   -1.137951   -3.428229
H     -2.663382    3.810100   -2.192564
H     -0.942457    4.333749   -2.012825
H     -1.469655    3.434896   -3.440738
H     -2.100072    4.224869    0.044548
H     -0.913883    2.303799    4.410297
H     -1.270673    0.594920    4.151974
H     -2.606325    1.743537    4.256536
H     -0.827916   -0.149827    2.011749
H     -0.622242    0.256867   -1.696247
H      1.205620   -3.559213   -0.354073
H      1.947787   -5.010099   -2.202585
H      1.368699   -4.481075   -4.519221
H      0.050608   -4.052455   -6.389436
H      0.067644   -2.538160   -7.300074
H      1.507196   -2.982189   -6.375413
H     -2.930793   -0.215853   -3.512864
H     -2.729302   -1.700814   -2.568809
H     -2.487267   -1.711068   -4.350046
