31

C     -3.581717    2.231425   -1.470539
N     -2.575003    1.227768   -1.736354
C     -1.900705    0.767484   -0.610283
N     -2.515089    0.701566    0.556786
C     -1.766336    0.239448    1.543780
O     -2.410402    0.178579    2.763038
C     -1.580668   -0.297914    3.813519
N     -0.499509   -0.146682    1.448823
C      0.036672   -0.049415    0.240163
N      1.361070   -0.409871    0.068227
C      1.996794   -1.290554    1.054960
C      2.591868   -2.524402    0.356108
O      3.561507   -2.208485   -0.654708
C      3.327992   -0.945277   -1.297267
C      1.851149   -0.522371   -1.309553
N     -0.636791    0.415973   -0.809374
H     -3.998897    2.580556   -2.420535
H     -4.411338    1.826157   -0.881079
H     -3.158317    3.100203   -0.954300
H     -1.864100    1.491381   -2.409341
H     -2.175661   -0.304537    4.732007
H     -1.250403   -1.325558    3.625375
H     -0.724806    0.366140    3.977984
H      2.800888   -0.725114    1.540561
H      1.315155   -1.634176    1.840535
H      3.083654   -3.171390    1.089518
H      1.797797   -3.113350   -0.118078
H      3.707664   -1.022739   -2.321005
H      3.935538   -0.194177   -0.778713
H      1.266463   -1.275585   -1.853046
H      1.763676    0.437919   -1.831130
