43

C     -1.464335    5.194192    1.549565
C     -2.148723    5.804797    0.477724
C     -2.177290    4.866800   -0.581916
C     -2.621828    4.733018   -1.846828
S     -2.183080    3.142274   -2.388355
C     -1.418720    2.713949   -0.882814
C     -0.839489    1.397975   -0.656338
C     -1.523202    0.215565   -0.993805
C     -0.929202   -1.039079   -0.773392
N     -1.433495   -2.292385   -1.026276
C     -0.519536   -3.224920   -0.656224
C     -0.707118   -4.739005   -0.768936
O     -1.794167   -5.392094   -1.242199
C     -1.505729   -6.717142   -1.147204
C     -0.246483   -6.901353   -0.618426
C      0.285427   -5.604337   -0.367149
C      1.476370   -5.024574    0.144662
C      2.487273   -5.920892    0.547469
C      3.692838   -5.447596    1.054984
C      3.905253   -4.080355    1.164221
C      2.915241   -3.170073    0.771368
C      1.670805   -3.585773    0.255208
C      0.638373   -2.650520   -0.150519
C      0.335249   -1.255315   -0.233179
C      1.078336   -0.076001    0.136362
N      2.284276   -0.104368    0.675078
S      2.674550    1.498749    0.884897
N      1.283300    2.217301    0.323144
C      0.452732    1.233377   -0.089894
C     -1.513966    3.780255   -0.054106
N     -1.049723    3.903932    1.225590
H     -1.226145    5.588123    2.529173
H     -2.559586    6.805479    0.487616
H     -3.156496    5.423167   -2.482803
H     -2.523166    0.269965   -1.421309
H     -2.341189   -2.498098   -1.422603
H     -2.280201   -7.389777   -1.488848
H      0.226819   -7.855653   -0.438714
H      2.350582   -6.996531    0.470153
H      4.467180   -6.145384    1.362234
H      4.848691   -3.707621    1.556497
H      3.162272   -2.126013    0.880731
H     -0.503268    3.230488    1.749942
