51

Si     4.524420    4.243619    2.733531
C      5.619282    4.402860    1.221686
C      5.080799    3.746499    0.177354
C      5.661252    3.661303   -1.147365
C      5.008174    2.965324   -2.096778
C      3.735960    2.294969   -1.832426
C      3.122888    2.334025   -0.625561
C      1.859147    1.611002   -0.477845
C      1.775349    0.226705   -0.199332
C      0.510663   -0.401317   -0.056788
N      0.171612   -1.708283    0.210677
C     -1.200061   -1.884105    0.264493
C     -1.787176   -0.630482    0.021603
C     -3.191437   -0.527183    0.020489
C     -3.983979   -1.659503    0.258138
C     -3.422033   -2.913527    0.501504
C     -4.285759   -4.044775    0.740051
C     -3.848997   -5.364413    0.998427
C     -2.465200   -5.430766    0.992668
C     -1.734464   -6.568943    1.210709
N     -0.409953   -6.210579    1.120694
C     -0.295598   -4.859658    0.848356
C     -1.566624   -4.340047    0.761718
C     -1.987461   -3.023910    0.503776
C     -0.707627    0.244961   -0.168287
C     -0.661211    1.643726   -0.445762
C     -1.656567    2.559467   -0.610843
N     -1.005959    3.752770   -0.855228
C      0.364865    3.566046   -0.839519
C      0.609940    2.234240   -0.580960
C      3.788883    3.071249    0.452164
C      3.344193    3.214776    1.717098
H      3.944970    5.546037    3.143715
H      5.176276    3.467423    3.816500
H      6.543264    4.957200    1.245681
H      6.603624    4.154959   -1.353703
H      5.415028    2.883040   -3.099753
H      3.292350    1.759045   -2.667965
H      2.687778   -0.354350   -0.089538
H      0.845821   -2.441463    0.349316
H     -3.673532    0.426922   -0.164016
H     -5.065296   -1.536310    0.248368
H     -5.364996   -3.881474    0.722213
H     -4.522198   -6.190862    1.173292
H     -2.020818   -7.590671    1.419413
H      0.369799   -6.844622    1.237094
H      0.689961   -4.435889    0.749890
H     -2.734384    2.509144   -0.584278
H     -1.464187    4.638882   -1.022125
H      1.030025    4.401663   -1.012728
H      2.434059    2.816277    2.137346
