32

O     -2.474393    0.655060   -0.185375
C     -1.435051    0.049543   -0.419173
C     -1.417119   -1.196968   -1.232659
C     -2.583536   -1.767947   -1.793113
C     -3.953149   -1.168366   -1.619159
C     -2.467164   -2.950138   -2.549627
C     -1.223761   -3.544215   -2.740843
O     -1.086413   -4.687903   -3.468911
C     -0.079797   -2.986407   -2.192565
C     -0.177984   -1.815495   -1.440485
O      1.003293   -1.334117   -0.934963
C      0.961534   -0.186809   -0.189195
C     -0.126096    0.539708    0.101229
C     -0.008598    1.751761    0.933353
C      0.896831    2.772506    0.597629
C      1.014530    3.915248    1.394990
C      0.223258    4.039987    2.531286
O      0.304901    5.135901    3.337652
C     -0.682472    3.046210    2.878579
C     -0.800128    1.905717    2.080438
H     -4.227970   -1.139565   -0.560189
H     -4.718591   -1.762171   -2.131125
H     -3.989559   -0.162787   -2.049568
H     -3.356574   -3.398430   -2.985590
H     -1.960574   -4.966722   -3.788573
H      0.884873   -3.460640   -2.349033
H      1.960605    0.056607    0.152698
H      1.511901    2.692349   -0.296150
H      1.719955    4.689944    1.112134
H      0.945945    5.756579    2.954826
H     -1.301915    3.158524    3.763830
H     -1.522453    1.141290    2.360102
