44

C      0.816754    2.790917    2.268793
C      0.070048    3.903995    3.015234
C     -1.226755    3.958387    2.636923
C     -1.473029    2.956855    1.659906
C     -0.272964    2.246410    1.409484
C     -0.410125    1.283278    0.439195
S     -2.047501    1.266794   -0.113842
C     -2.544384    2.557250    0.921521
C     -3.923084    3.027934    0.913071
C     -4.675810    3.065345    2.092718
C     -5.987547    3.531577    2.062182
C     -6.505862    3.955611    0.845970
N     -5.812330    3.944857   -0.316111
C     -4.542130    3.479274   -0.254341
C      0.581913    0.381182   -0.084853
S      1.782983   -0.326995    0.936690
C      2.537884   -1.178608   -0.352413
C      3.699964   -1.980491   -0.169819
S      5.239545   -1.623197   -0.880971
C      6.026641   -2.982040   -0.136049
C      5.099733   -3.635600    0.594004
C      4.955294   -4.760028    1.437240
C      3.608147   -4.789716    1.857614
N      2.874814   -3.738066    1.312759
C      3.836038   -3.092095    0.581445
C      1.876911   -0.954851   -1.527876
S      2.160419   -1.573343   -3.206293
C      0.786707   -0.581832   -3.644503
C      0.181676    0.136002   -2.606151
C      0.798272   -0.083204   -1.344002
H      1.630789    3.202529    1.677101
H      1.191424    2.047548    2.974329
H      0.533473    4.554967    3.734351
H     -1.962778    4.660337    3.002889
H     -4.252289    2.721021    3.035506
H     -6.592576    3.557088    2.964124
H     -7.518092    4.332992    0.770413
H     -4.016360    3.494401   -1.208428
H      7.074479   -3.186646   -0.292362
H      5.717870   -5.470077    1.724594
H      3.107434   -5.490042    2.513289
H      1.904356   -3.477342    1.420337
H      0.493121   -0.581454   -4.686700
H     -0.666699    0.783917   -2.782447
