32

F      1.529649   -0.882075   -4.859744
C      0.749067    0.192913   -4.560198
F     -0.249409    0.198410   -5.492525
F      1.505661    1.295364   -4.834760
C      0.210454    0.205766   -3.140995
C     -0.746760    1.142356   -2.800485
C     -1.185927    1.120524   -1.495979
C     -2.206641    2.061271   -1.009112
C     -3.224457    2.689676   -1.709754
C     -4.012873    3.552528   -0.892547
C     -3.576725    3.563743    0.411359
S     -2.229624    2.540898    0.644829
N     -0.720339    0.236041   -0.593980
C      0.202242   -0.640677   -0.995550
N      0.706574   -1.581113   -0.115892
C      0.806453   -1.115151    1.255965
C      1.539190   -2.071842    2.135500
C      1.134705   -3.097521    2.964949
C      2.313463   -3.647737    3.523193
C      3.359785   -2.927996    2.996116
O      2.900943   -1.970044    2.150168
N      0.692751   -0.682448   -2.236512
H     -1.115958    1.858830   -3.523850
H     -3.412635    2.533782   -2.765042
H     -4.858410    4.131848   -1.243506
H     -3.985000    4.121899    1.242916
H      1.584534   -1.912188   -0.500238
H     -0.196286   -0.965250    1.676671
H      1.326171   -0.148182    1.296991
H      0.113731   -3.409354    3.136630
H      2.392359   -4.470716    4.219362
H      4.433573   -2.971639    3.113738
