38

C      0.973536    1.298751   -5.915554
C      2.346132    1.131655   -5.962845
N      3.079567    0.688380   -4.921878
C      2.405568    0.399731   -3.781883
C      1.024426    0.524978   -3.616757
C      0.310048    0.991373   -4.728513
C      0.359090    0.187793   -2.353566
C      0.587625   -1.016634   -1.694875
N      0.007550   -1.384025   -0.525944
C     -0.856842   -0.531175    0.047392
C     -1.474120   -0.867664    1.245396
C     -2.399309   -0.019615    1.914391
C     -2.689494    1.220412    1.313307
C     -2.076796    1.561954    0.118456
C     -1.167366    0.708331   -0.524306
C     -0.546351    1.056889   -1.735762
N     -3.540191    2.109762    1.836833
C     -4.154146    1.808966    3.001163
C     -3.978591    0.635398    3.717719
C     -4.691949    0.448214    4.935015
C     -4.586428   -0.697715    5.732394
C     -3.710191   -1.691913    5.256519
N     -3.472255   -2.858759    5.873909
S     -2.382215   -3.675226    4.932521
N     -2.167034   -2.587258    3.705643
C     -2.939838   -1.517070    3.964786
C     -3.071821   -0.314903    3.160271
H      0.430015    1.655753   -6.783225
H      2.908177    1.355673   -6.865022
H      3.042044    0.059997   -2.967642
H     -0.770806    1.105383   -4.683856
H      1.263509   -1.764471   -2.104555
H     -1.210988   -1.836217    1.661632
H     -2.318695    2.527075   -0.323260
H     -0.763254    2.021861   -2.190613
H     -4.826706    2.589886    3.351380
H     -5.365752    1.234352    5.282962
H     -5.139701   -0.818049    6.655911
