39

C     -5.133471   -4.131200   -0.220973
C     -4.594708   -5.391192   -0.335415
S     -2.888233   -5.284671   -0.362299
C     -2.984575   -3.564449   -0.219378
N     -4.220529   -3.098699   -0.155441
C     -1.779743   -2.707911   -0.174356
C     -0.482868   -3.190672   -0.240949
C      0.601197   -2.307980   -0.191250
C      0.464057   -0.896999   -0.072834
C     -0.853901   -0.380107   -0.003008
C     -1.932399   -1.315564   -0.057133
C     -1.063380    1.034391    0.117216
C     -2.364567    1.611610    0.191617
C     -2.590985    2.981816    0.308575
C     -1.514675    3.837126    0.356179
C     -0.225645    3.311056    0.286205
C      0.049245    1.917004    0.166305
C      1.384494    1.395930    0.095774
C      2.530043    2.251544    0.141967
C      3.839048    1.751023    0.073670
C      5.149940    2.293113    0.090729
C      6.009407    1.223236   -0.014810
O      5.312602    0.058753   -0.095667
C      3.992724    0.387481   -0.041207
C      2.927846   -0.503621   -0.091991
C      1.591897   -0.011124   -0.023804
H     -6.192055   -3.905420   -0.180385
H     -5.107205   -6.339691   -0.402421
H     -0.269775   -4.252163   -0.332328
H      1.580086   -2.775610   -0.249976
H     -2.958995   -0.959838   -0.006587
H     -3.258424    0.995184    0.159780
H     -3.605737    3.366090    0.361206
H     -1.665341    4.909067    0.447116
H      0.575174    4.042732    0.329437
H      2.436997    3.326675    0.231963
H      5.433555    3.332586    0.169962
H      7.085644    1.125513   -0.045266
H      3.166473   -1.554178   -0.183016
