43

C     -4.229826   -3.299393   -1.394484
C     -3.795594   -2.817644   -0.020894
N     -2.479375   -2.140331   -0.144098
C     -1.339339   -2.925209    0.397265
C     -1.243871   -2.924036    1.912190
S     -2.517235   -0.448126    0.100386
O     -2.550492   -0.237789    1.529835
O     -3.572032    0.086722   -0.737883
C     -0.971325    0.088002   -0.620835
C     -0.821275   -0.274269   -1.973491
C      0.342313    0.031478   -2.654665
C      1.358581    0.706323   -1.989092
C      1.244072    1.112424   -0.640389
C      2.314708    1.815780   -0.008269
N      3.490491    2.124451   -0.749656
C      4.728428    1.689482   -0.100975
C      3.488384    3.527782   -1.173390
C      2.182626    2.224251    1.325462
C      1.023034    1.951824    2.031817
C     -0.021999    1.262196    1.417089
C      0.047118    0.808214    0.075156
H     -3.506288   -4.009719   -1.808205
H     -5.202030   -3.797837   -1.334105
H     -4.316290   -2.463673   -2.097111
H     -4.553991   -2.142609    0.390967
H     -3.738144   -3.669410    0.665229
H     -1.441494   -3.960137    0.046145
H     -0.401306   -2.564467   -0.036799
H     -0.525793   -3.682678    2.239675
H     -0.884698   -1.962785    2.288814
H     -2.204984   -3.140491    2.387109
H     -1.617391   -0.805596   -2.493303
H      0.465154   -0.252756   -3.695844
H      2.270221    0.929516   -2.542559
H      5.556487    1.756105   -0.815084
H      4.660974    0.642897    0.216500
H      4.985501    2.309769    0.764583
H      3.592641    4.211010   -0.322721
H      2.569679    3.776465   -1.717621
H      4.326133    3.707735   -1.856352
H      2.975779    2.778710    1.817349
H      0.920055    2.283254    3.061861
H     -0.902953    1.108493    2.030869
