47

C     -0.962586    5.207817    2.241632
C     -1.774050    5.917036    1.195204
C     -2.096488    5.053184    0.222835
C     -2.864887    5.293614   -0.975601
C     -3.085256    4.284886   -1.841586
C     -2.547434    2.937976   -1.574621
C     -2.730920    1.837656   -2.421566
C     -3.418256    1.796454   -3.615737
N     -3.343209    0.504459   -4.112907
C     -2.614443   -0.298456   -3.257551
C     -2.250288    0.525208   -2.236348
C     -1.490071    0.262711   -1.064929
C     -0.878853   -0.893920   -0.581860
C     -0.718999   -2.225623   -0.951983
N     -0.011939   -3.070828   -0.158332
C      0.538159   -2.619286    1.000293
C      0.429905   -1.309847    1.450277
C     -0.296943   -0.477376    0.613385
O     -0.537062    0.850143    0.847988
C     -1.286106    1.324755   -0.201064
C     -1.776504    2.632794   -0.404316
C     -1.541662    3.736624    0.533549
C     -0.881463    3.808505    1.700291
C      1.287943   -3.616119    1.766611
S      0.643068   -5.214681    1.991356
C      1.981109   -5.733906    2.951314
C      2.887696   -4.720822    3.090183
C      4.205310   -4.516016    3.755494
C      4.493564   -3.065420    3.360522
C      3.496650   -2.553469    2.603150
C      2.489307   -3.538332    2.419503
H     -1.468509    5.225839    3.211374
H      0.032834    5.651623    2.335740
H     -2.045742    6.960234    1.237468
H     -3.255454    6.287908   -1.161240
H     -3.660276    4.451935   -2.743987
H     -3.957897    2.550776   -4.171739
H     -3.763982    0.195649   -4.980149
H     -2.448512   -1.342708   -3.479530
H     -1.130020   -2.653528   -1.857913
H      0.857262   -0.957572    2.377455
H     -0.364657    3.001502    2.195650
H      2.016380   -6.740492    3.343309
H      4.133444   -4.616583    4.841932
H      4.971331   -5.187064    3.357273
H      5.389817   -2.537077    3.649822
H      3.473129   -1.555643    2.188220
