41

C     -0.466417   -0.170886    1.810523
C     -1.697683   -0.300508    0.983799
C     -1.866238   -0.097378   -0.384834
C     -0.953975    0.441582   -1.381975
O     -1.213507    0.419896   -2.579926
O      0.191665    0.990179   -0.816037
C      1.095235    1.508916   -1.754858
C      0.895413    2.818669   -2.196463
C      1.795894    3.376330   -3.096271
C      2.893459    2.632057   -3.535260
C      3.113002    1.320090   -3.077798
C      4.225036    0.580923   -3.513680
C      4.447533   -0.717679   -3.054253
C      3.561921   -1.295739   -2.151810
C      2.450874   -0.576160   -1.709199
C      2.204573    0.737442   -2.163670
C     -3.152857   -0.595729   -0.650332
N     -3.770314   -1.040854    0.438082
N     -2.934566   -0.735889    1.467029
C     -3.411890   -0.885677    2.806067
C     -4.558093   -1.667322    3.034172
C     -5.060993   -1.834507    4.326673
C     -4.436133   -1.211348    5.402888
C     -3.316104   -0.412000    5.185828
C     -2.807617   -0.242594    3.893135
H     -0.459810   -0.871831    2.650214
H      0.424854   -0.414583    1.223874
H     -0.355946    0.851205    2.184465
H      0.043190    3.395352   -1.850224
H      1.647055    4.389927   -3.459394
H      3.584934    3.088239   -4.241175
H      4.930701    1.014640   -4.219086
H      5.312317   -1.276232   -3.402854
H      3.732396   -2.307578   -1.793427
H      1.773011   -1.052025   -1.005129
H     -3.658137   -0.663499   -1.606858
H     -5.067039   -2.166336    2.210658
H     -5.942588   -2.449594    4.488515
H     -4.829737   -1.337852    6.408135
H     -2.843953    0.094201    6.024571
H     -1.971503    0.436079    3.774431
