47

C     -3.431113   -2.073404   -0.718966
C     -3.276391   -0.565913   -0.403164
C     -4.180862    0.260669   -1.350746
C     -3.748527   -0.325321    1.047395
C     -5.068432   -0.620944    1.448119
C     -5.490407   -0.411687    2.761993
C     -4.600351    0.089680    3.703326
C     -3.291541    0.385728    3.326832
C     -2.864373    0.199257    2.004166
N     -1.532013    0.457587    1.664505
C     -1.015757    0.352881    0.368305
C      0.327462    0.686695    0.127751
C      0.908375    0.550269   -1.142709
C      2.314956    0.915721   -1.380291
C      2.808394    2.176894   -1.002665
C      4.143705    2.528435   -1.224817
C      5.012412    1.618466   -1.833566
C      4.543263    0.364374   -2.218230
C      3.203738    0.014872   -1.992100
C      5.449155   -0.604869   -2.866140
O      5.065987   -1.710413   -3.224853
C      6.852739   -0.199874   -3.078099
C      7.301910    1.001446   -2.707741
C      6.421086    1.995207   -2.063685
O      6.860190    3.089767   -1.736603
C      0.105777    0.048949   -2.173578
C     -1.226520   -0.305725   -1.940385
C     -1.807946   -0.165346   -0.666135
H     -3.150732   -2.311164   -1.751158
H     -2.798522   -2.680975   -0.059723
H     -4.462946   -2.419360   -0.591731
H     -3.928203    0.106363   -2.405560
H     -5.239579   -0.001746   -1.248242
H     -4.088325    1.334582   -1.145611
H     -5.785764   -1.025216    0.737984
H     -6.511631   -0.648294    3.048974
H     -4.920218    0.243868    4.730062
H     -2.601093    0.762169    4.076551
H     -1.009228    1.028696    2.313869
H      0.935885    1.046259    0.954772
H      2.145373    2.906653   -0.539205
H      4.498185    3.513081   -0.924358
H      2.854249   -0.975080   -2.286041
H      7.497049   -0.931539   -3.552081
H      8.331890    1.301433   -2.863230
H      0.508990   -0.069324   -3.177618
H     -1.804444   -0.698570   -2.773695
