48

C     -3.241046    2.289443   -2.143757
C     -3.504802    2.974962   -0.841720
C     -2.704302    2.459806    0.102871
C     -2.616019    2.813526    1.490783
C     -3.342075    3.799647    2.257646
C     -2.920046    3.775068    3.527961
C     -1.850180    2.732322    3.681329
C     -1.735932    2.172051    2.293618
C     -0.846074    1.103206    1.791598
C      0.102947    0.384837    2.574030
C      0.369686    0.541811    3.914984
S      1.594198   -0.525715    4.485585
C      1.798528   -1.229519    2.938859
C      0.952374   -0.659620    2.020365
C      0.900435   -1.033427    0.687160
C      1.633291   -2.022769   -0.064672
C      1.193099   -1.982324   -1.340901
C      0.102423   -0.916094   -1.491415
C     -0.027639   -0.339962   -0.106548
C     -0.880783    0.689269    0.387357
C     -1.858485    1.412565   -0.471984
C     -2.164551    1.307510   -1.777961
C      1.711607   -2.843347   -2.372147
S      2.967890   -4.026645   -2.036131
C      3.034938   -4.609410   -3.647101
C      2.138180   -3.930169   -4.405360
Si     1.620706   -3.975786   -6.214122
C      0.384085   -2.581516   -5.825542
C      0.434696   -2.218515   -4.524914
C      1.384507   -2.936255   -3.716526
H     -2.887663    2.997100   -2.899372
H     -4.134919    1.775256   -2.508735
H     -4.231128    3.760567   -0.703756
H     -4.103713    4.447256    1.852202
H     -3.285140    4.402864    4.326339
H     -2.174984    1.975526    4.401855
H     -0.919505    3.205823    4.008500
H     -0.057397    1.210505    4.641686
H      2.526002   -2.017001    2.799075
H      2.389443   -2.656578    0.368167
H     -0.836998   -1.384221   -1.801278
H      0.428239   -0.145871   -2.197291
H     -1.739338    0.640584   -2.506475
H      3.718971   -5.400232   -3.923471
H      2.669016   -3.512130   -7.156598
H      0.915277   -5.219341   -6.611797
H     -0.251386   -2.174339   -6.595440
H     -0.201477   -1.438747   -4.129412
