39

C      1.376048    4.598210    5.374755
N      1.758681    3.801305    4.210185
C      2.915135    4.292465    3.462036
C      0.782084    3.052037    3.542286
C     -0.485295    2.812508    4.099744
C     -1.465534    2.050123    3.447883
C     -1.213018    1.479426    2.200517
C      0.064738    1.683115    1.605668
C      0.354535    1.114442    0.351809
C     -0.632406    0.371256   -0.263795
C     -0.629726   -0.329300   -1.546892
N     -1.865411   -0.896222   -1.677655
C     -2.247028   -1.753203   -2.779896
C     -1.872628   -3.192055   -2.460983
O     -2.234822   -3.996893   -3.503612
C     -1.925524   -5.377110   -3.303935
O     -1.330895   -3.580108   -1.433533
C     -2.661347   -0.647970   -0.595869
O     -3.803011   -1.010504   -0.388368
O      0.311945   -0.364668   -2.314956
C     -1.870661    0.177192    0.315641
C     -2.193806    0.714475    1.544546
C      1.025546    2.454659    2.289892
H      2.240100    5.120431    5.800931
H      0.984455    3.964479    6.177709
H      0.631722    5.355745    5.105708
H      3.579722    4.887005    4.099048
H      2.602472    4.929764    2.627473
H      3.524061    3.463595    3.085636
H     -0.752334    3.215013    5.072413
H     -2.426298    1.908986    3.938780
H      1.319156    1.245050   -0.129677
H     -1.712559   -1.440589   -3.682017
H     -3.329863   -1.693695   -2.925224
H     -2.462046   -5.768138   -2.433772
H     -0.845813   -5.515370   -3.189673
H     -2.253244   -5.928994   -4.189237
H     -3.174488    0.540883    1.977173
H      1.995090    2.577362    1.814949
