32

C     -4.022493   -5.614993    0.470396
C     -3.017025   -6.521822    0.790219
C     -1.678389   -6.120087    0.838698
C     -1.376839   -4.777307    0.556041
S      0.148794   -3.988248    0.533669
C     -0.604513   -2.499037    0.104207
C      0.169923   -1.256523   -0.104573
C      1.560352   -1.171486    0.023666
C      2.233884    0.042575   -0.189180
C      1.558805    1.227987   -0.539034
C      2.309224    2.490857   -0.755141
C      1.725854    3.711009   -1.103437
N      2.425991    4.860934   -1.298422
C      3.759267    4.756188   -1.131721
C      4.362751    3.562977   -0.787615
N      3.660844    2.421598   -0.594811
C      0.163189    1.130378   -0.664885
C     -0.513160   -0.082347   -0.452660
N     -1.916816   -2.567854   -0.019543
C     -2.367326   -3.851532    0.233401
C     -3.709420   -4.280654    0.190899
H     -5.059097   -5.942067    0.436566
H     -3.273575   -7.557114    1.005614
H     -0.894390   -6.828463    1.088365
H      2.161393   -2.036939    0.290603
H      3.318224    0.050112   -0.075391
H      0.657977    3.825192   -1.244076
H      4.333889    5.662412   -1.282937
H      5.435906    3.487731   -0.655586
H     -0.446454    1.989366   -0.931242
H     -1.597476   -0.100427   -0.563999
H     -4.490123   -3.569264   -0.059125
