43

C      4.196453    0.291443    2.238671
C      5.584919    0.440315    1.663827
C      5.572096    0.734346    0.354464
C      4.183943    0.806932   -0.056610
C      3.614697    1.071599   -1.270889
N      2.272185    1.092037   -1.447491
C      1.434376    0.845608   -0.399599
C      1.959925    0.563682    0.885529
C      1.111431    0.306828    1.972690
C     -0.272184    0.321329    1.818311
C     -0.857658    0.591469    0.583022
C     -2.289663    0.586177    0.504086
C     -3.033154    0.838993   -0.667296
C     -4.483104    0.800936   -0.719398
S     -5.390420    2.051822    0.065106
C     -6.910082    1.380976   -0.405354
C     -6.699170    0.245038   -1.123696
Si    -7.774476   -1.046958   -1.971168
C     -6.171341   -1.948925   -2.497352
C     -5.071637   -1.298990   -2.056500
C     -5.334150   -0.102731   -1.310027
C     -2.215548    1.104790   -1.772283
C     -2.701559    1.404417   -3.025499
S     -1.439932    1.673557   -4.150550
C     -0.233650    1.408541   -2.959350
C     -0.763738    1.115919   -1.721752
C      0.010692    0.857091   -0.537235
C      3.348879    0.551480    1.027254
H      4.019178    1.037214    3.018986
H      4.044197   -0.720859    2.624097
H      6.481777    0.320364    2.255536
H      6.419673    0.892029   -0.292616
H      4.207626    1.278689   -2.154580
H      1.519011    0.091303    2.957880
H     -0.889657    0.116093    2.691758
H     -2.857554    0.365231    1.410894
H     -7.836311    1.862170   -0.122093
H     -8.570197   -1.879144   -1.034738
H     -8.511686   -0.538177   -3.154314
H     -6.210919   -2.859453   -3.073156
H     -4.062254   -1.646629   -2.247612
H     -3.728205    1.483993   -3.356158
H      0.800397    1.491668   -3.259292
