45

C      4.686895    1.904217   -3.740698
C      4.153209    0.709432   -4.180610
C      3.207944    0.403847   -3.210020
C      2.351047   -0.693112   -3.028131
C      2.268949   -1.813494   -3.796505
N      1.371359   -2.610286   -3.128828
C      0.950513   -1.981945   -1.965905
C      1.487818   -0.712300   -1.904472
C      1.312970    0.276991   -0.868458
C      2.318838    1.315454   -1.100484
C      2.348787    2.255191   -0.067838
C      3.188127    3.335167    0.064309
O      2.919364    3.998939    1.224384
C      1.898079    3.338490    1.839298
C      1.512109    2.255150    1.085281
C      0.474765    1.341309    1.365009
C     -0.325771    1.449531    2.546134
C     -1.410885    0.608964    2.805430
C     -2.226309    0.703164    4.006716
S     -2.967214    2.203307    4.447746
C     -3.700419    1.548381    5.862372
C     -3.384557    0.227147    5.992507
S     -3.838597   -0.976417    7.252475
C     -2.872501   -2.101542    6.307230
C     -2.273248   -1.585618    5.152080
C     -2.570474   -0.211189    4.948704
C     -1.711215   -0.331689    1.789376
N     -2.751172   -1.185986    1.795841
S     -2.732303   -1.991329    0.360452
N     -1.388029   -1.336544   -0.327207
C     -0.849246   -0.452112    0.529244
C      0.345393    0.351096    0.304442
C      3.174308    1.359358   -2.225661
O      4.113356    2.304560   -2.564448
H      5.451452    2.565136   -4.125285
H      4.431313    0.163008   -5.069102
H      2.760444   -2.140088   -4.702138
H      1.096796   -3.543277   -3.408309
H      0.319088   -2.545248   -1.299018
H      3.989654    3.755768   -0.526811
H      1.579659    3.772581    2.776488
H     -0.089897    2.216697    3.283081
H     -4.316176    2.140981    6.524718
H     -2.801935   -3.116736    6.673327
H     -1.660868   -2.192620    4.496464
