33

O     -2.697399   -0.436225   -1.410222
C     -1.787667   -0.486204   -0.585465
N     -1.325065    0.515839    0.267972
C     -1.938508    1.774263    0.209990
N     -2.921978    2.147362   -0.578330
C     -3.261578    3.466766   -0.348016
C     -4.272958    4.188306   -1.013890
C     -4.510175    5.525229   -0.678193
C     -3.753492    6.147832    0.309592
C     -2.744452    5.453168    0.984343
C     -2.516058    4.110850    0.637882
S     -1.366080    3.004026    1.273580
N     -0.295105    0.327429    1.178206
C      0.273321   -0.834693    1.244921
C      1.374115   -1.043922    2.228516
C      2.221977    0.032064    2.524176
C      3.261720   -0.123475    3.442555
C      3.453610   -1.349719    4.076902
C      2.603113   -2.419722    3.800535
C      1.561566   -2.269167    2.881365
C     -0.081968   -1.976641    0.382266
C     -1.074549   -1.782616   -0.484465
H     -4.859317    3.695540   -1.783367
H     -5.291700    6.077527   -1.194604
H     -3.948094    7.188245    0.561616
H     -2.154443    5.939253    1.755199
H      2.079761    0.995813    2.039237
H      3.918415    0.713991    3.665348
H      4.261402   -1.468408    4.795253
H      2.746181   -3.369799    4.310046
H      0.894905   -3.109500    2.711058
H      0.457403   -2.911912    0.430058
H     -1.402443   -2.556360   -1.167856
