40

C     -5.622889    0.734888   -5.619623
C     -6.620677    0.177891   -4.853638
S     -6.082717   -0.200029   -3.276481
C     -4.500213    0.388493   -3.595726
C     -4.400280    0.851663   -4.896137
C     -3.458294    0.329750   -2.561860
C     -3.705913    0.733200   -1.243815
C     -2.694804    0.681539   -0.276012
C     -1.406480    0.227293   -0.595835
C     -1.162951   -0.172442   -1.918427
C     -2.172188   -0.119347   -2.887812
C     -0.345032    0.172662    0.422453
C     -0.018221    1.302356    1.189128
C      0.991242    1.251317    2.157069
C      1.700730    0.066425    2.384015
C      1.378999   -1.065876    1.628634
C      0.370332   -1.011716    0.659727
C      2.756027    0.018698    3.381312
S      2.705834   -1.023023    4.765660
C      4.227749   -0.449186    5.386957
C      4.694093    0.478990    4.527021
C      5.794420    1.347977    4.327083
C      5.557657    2.044328    3.121756
N      4.352586    1.662039    2.534787
C      3.899604    0.736810    3.432054
H     -5.761514    1.043394   -6.648471
H     -7.641901   -0.028441   -5.143020
H     -3.489467    1.267025   -5.310526
H     -4.687545    1.100325   -0.952410
H     -2.928825    0.991516    0.740802
H     -0.174966   -0.523173   -2.210491
H     -1.943071   -0.444684   -3.900205
H     -0.548057    2.240270    1.033067
H      1.209051    2.143022    2.741409
H      1.912327   -2.001308    1.785047
H      0.136573   -1.913669    0.096950
H      4.645253   -0.833797    6.305842
H      6.664060    1.470260    4.958985
H      6.166026    2.790873    2.627339
H      3.907910    1.960195    1.674630
