38

C      0.656115   -0.881471   -6.505506
C      1.879708   -0.252586   -6.528744
N      2.194304    0.106166   -5.242839
C      1.189184   -0.283244   -4.389892
C      0.220722   -0.900985   -5.158107
C      1.207779   -0.058085   -2.976729
C      2.177988    0.562271   -2.197348
C      1.679444    0.502729   -0.898183
C      2.212462    0.964555    0.323494
N      3.384259    1.578046    0.374749
S      3.538869    1.906749    2.006097
N      2.112991    1.257208    2.579592
C      1.425738    0.743598    1.540960
C      0.129182    0.078806    1.576026
C     -0.300775   -0.340239    0.285605
C     -1.518436   -0.990883    0.146044
N     -2.348949   -1.263598    1.172337
C     -2.008869   -0.898955    2.410577
C     -2.975240   -1.248323    3.394533
C     -2.895716   -0.996145    4.778255
C     -1.714179   -0.343761    5.051824
C     -1.306356    0.056493    6.293973
O     -0.094450    0.666752    6.188447
C      0.261329    0.648934    4.866141
C     -0.705043    0.033900    4.108475
C     -0.766449   -0.213540    2.694297
C      0.466491   -0.120595   -0.874447
O      0.168536   -0.471253   -2.163777
H      0.132364   -1.283053   -7.363494
H      2.552381   -0.029601   -7.346213
H      3.040533    0.585500   -4.967816
H     -0.704214   -1.322034   -4.784282
H      3.109853    0.992556   -2.534196
H     -1.881615   -1.326484   -0.823567
H     -3.870411   -1.765236    3.038854
H     -3.658969   -1.282550    5.486677
H     -1.716805   -0.003396    7.292028
H      1.214521    1.113612    4.682732
