42

O     -0.915326   -1.241625   -4.631466
C     -2.237479   -1.167437   -4.103591
C     -2.353406   -0.152982   -2.944973
C     -1.899772    1.244677   -3.379162
N     -1.632031   -0.564241   -1.740283
C     -0.298337   -1.222834   -1.788007
C      0.071989   -1.173045   -0.358112
C     -0.912956   -0.547403    0.361860
N     -0.582313   -0.506927    1.672007
C     -1.315725   -0.014950    2.747999
C     -0.789045   -0.070235    3.980609
C      0.557616   -0.600138    4.160500
O      0.996649   -0.477913    5.457927
C      2.410111   -0.512731    5.657346
C      1.258690   -1.096620    3.111224
C      0.695923   -1.098339    1.792147
C      1.098470   -1.553722    0.529404
C      2.418064   -2.338768    0.150484
C      2.722438   -2.758521   -1.131419
C      3.947997   -3.494127   -1.198332
C      4.548897   -3.592511    0.033983
S      3.643128   -2.801013    1.247454
C     -1.992186   -0.120671   -0.458277
O     -2.988864    0.504726   -0.137270
H     -0.809135   -0.511766   -5.265969
H     -2.517734   -2.168681   -3.757169
H     -2.911366   -0.891792   -4.920471
H     -3.414453   -0.074394   -2.662618
H     -2.472982    1.585060   -4.244172
H     -0.838430    1.258083   -3.647664
H     -2.035256    1.974030   -2.575202
H      0.382629   -0.634848   -2.407797
H     -0.419358   -2.245158   -2.153766
H     -2.302156    0.388367    2.541223
H     -1.335004    0.278667    4.849712
H      2.620538   -0.159897    6.671982
H      2.791170   -1.537518    5.559180
H      2.954450    0.149116    4.957362
H      2.258838   -1.487981    3.253690
H      2.100041   -2.580763   -1.996981
H      4.358699   -3.934730   -2.103101
H      5.472373   -4.095651    0.282009
