39

F     -4.082474    2.600464    1.396011
C     -4.430461    1.318051    1.223456
C     -5.205280    0.706986    2.205905
C     -5.594269   -0.618250    2.048850
C     -5.207874   -1.316317    0.905195
C     -4.428163   -0.693625   -0.079095
Cl    -4.023134   -1.632607   -1.471655
C     -4.018893    0.639041    0.069277
C     -3.164215    1.367290   -0.934117
N     -1.821673    1.614651   -0.441110
N     -1.364136    2.879597   -0.296427
N     -0.104484    2.804000    0.124631
C      0.233450    1.477477    0.215117
C      1.414219    0.808997    0.581605
N      2.563068    1.494525    0.989725
C      3.830748    0.865617    0.631677
C      4.139893    1.047640   -0.842660
C      4.112674   -0.042367   -1.710229
C      4.369478    0.168207   -3.061937
C      4.639480    1.454823   -3.511995
C      4.639572    2.485339   -2.587628
N      4.395705    2.313687   -1.270225
N      1.398279   -0.553562    0.542302
C      0.266573   -1.185720    0.160913
N     -0.905998   -0.641513   -0.212207
C     -0.847631    0.699207   -0.155767
H     -5.497946    1.272176    3.086031
H     -6.197768   -1.106004    2.810321
H     -5.519056   -2.351956    0.783672
H     -3.056517    0.836068   -1.884032
H     -3.624027    2.334214   -1.174169
H      2.527208    2.463354    0.669959
H      3.873212   -0.189058    0.929856
H      4.626513    1.364938    1.197897
H      3.881682   -1.037607   -1.343519
H      4.352056   -0.664720   -3.758892
H      4.840197    1.651491   -4.558986
H      4.840109    3.508888   -2.891228
H      0.310847   -2.271191    0.154327
