40

C     -4.394622    1.829579   -0.832166
C     -3.928456    1.229505   -2.123144
C     -2.865386    0.447452   -1.893497
C     -2.078346   -0.331409   -2.773980
C     -2.203479   -0.492799   -4.161094
O     -3.057227   -0.001666   -5.106094
C     -2.636995   -0.549720   -6.277855
C     -1.548537   -1.371534   -6.121529
C     -1.288398   -1.314537   -4.729817
S     -0.197840   -1.944504   -3.540689
C     -1.009213   -1.076687   -2.286872
C     -0.634590   -1.100296   -0.850391
C      0.449119   -1.846067   -0.300730
N      1.314375   -2.647813   -0.946599
S      2.359811   -3.272455    0.165454
N      1.796632   -2.554932    1.543071
C      0.745514   -1.791782    1.192724
C     -0.042364   -1.002667    2.081842
C     -1.101310   -0.288407    1.472817
C     -1.399770   -0.323159    0.085212
C     -2.538174    0.459769   -0.466087
C     -3.420565    1.258556    0.161025
C      0.241479   -0.949743    3.512479
C      1.508490   -0.716319    4.073003
N      1.852546   -0.638242    5.402763
C      0.913333   -0.811598    6.374752
C     -0.412301   -1.062929    5.974783
N     -1.466473   -1.257119    6.783633
S     -2.772782   -1.519783    5.796355
N     -2.065049   -1.378852    4.303565
C     -0.756738   -1.131715    4.507425
H     -5.418356    1.521680   -0.600281
H     -4.333981    2.921448   -0.859141
H     -4.390625    1.407387   -3.082771
H     -3.217028   -0.258287   -7.143497
H     -1.022940   -1.925376   -6.884527
H     -1.724924    0.328439    2.121341
H     -3.462993    1.481274    1.215721
H      2.365468   -0.561460    3.414531
H      1.232765   -0.747518    7.406219
