38

C      2.466160    0.899878    4.455517
C      2.566140   -0.414316    3.703726
O      2.927828   -0.148346    2.350710
C      1.940988   -0.529929    1.390273
C      0.767565    0.444876    1.359855
N     -0.225115    0.095111    0.364200
C     -1.331509   -0.710462    0.525985
S     -1.672552   -1.556201    2.000442
C     -3.053914   -2.627279    1.500385
C     -2.573954   -3.816214    0.685835
N     -2.069319   -0.759073   -0.562505
C     -1.406937    0.018674   -1.457899
C     -0.261976    0.543288   -0.931174
C      0.613063    1.370704   -1.686470
O      1.664816    1.846025   -1.276773
N      0.160565    1.585567   -2.968333
C     -0.981004    1.070303   -3.553613
O     -1.216856    1.338844   -4.732157
N     -1.790881    0.265201   -2.759155
C     -3.005986   -0.316269   -3.293621
H      3.398130    1.467095    4.372889
H      2.250118    0.729009    5.513783
H      1.673742    1.525581    4.031962
H      3.362119   -1.023723    4.142751
H      1.627749   -0.974135    3.781010
H      1.618060   -1.562233    1.576613
H      2.439855   -0.531817    0.414358
H      0.272109    0.503530    2.334123
H      1.116943    1.464185    1.161668
H     -3.535256   -2.991698    2.413560
H     -3.804758   -2.052450    0.949119
H     -2.119511   -3.505476   -0.259673
H     -1.844078   -4.414416    1.241094
H     -3.423029   -4.464077    0.443030
H      0.741002    2.153360   -3.564296
H     -2.917166   -1.407447   -3.268100
H     -3.184974   -0.002667   -4.325737
H     -3.855335   -0.003165   -2.678309
