42

C      2.346454    4.155043   -0.030434
C      2.750578    5.632457    0.021622
C      3.277415    6.040488   -1.155502
C      3.284542    4.953014   -2.062724
C      3.685533    4.756587   -3.347621
S      3.380415    3.116706   -3.795825
C      2.718914    2.707613   -2.243901
C      2.735387    3.813604   -1.430445
C      2.228591    1.355870   -1.980004
C      3.013499    0.227720   -2.227227
N      2.660276   -1.061402   -2.002422
C      1.414163   -1.224694   -1.490613
C      0.567224   -0.162423   -1.213512
C      0.950067    1.160596   -1.446515
N     -0.594797   -0.700555   -0.719079
C     -0.534527   -2.077453   -0.655030
C      0.733287   -2.425955   -1.142706
C      1.098626   -3.783460   -1.205897
C      0.202041   -4.769978   -0.784616
C     -1.064213   -4.447689   -0.295210
C     -1.930516   -5.513252    0.118882
C     -3.232275   -5.343641    0.632117
C     -3.594704   -4.002467    0.695591
C     -4.826407   -3.621737    1.168132
S     -5.001869   -1.919213    1.134979
C     -3.421554   -1.700720    0.485183
C     -2.757468   -2.890073    0.290130
C     -1.451131   -3.060138   -0.225328
H      2.910414    3.571627    0.702571
H      1.271305    4.043631    0.134265
H      2.625206    6.253301    0.896256
H      3.640743    7.033993   -1.377360
H      4.131563    5.450584   -4.045662
H      4.019431    0.335008   -2.629086
H      0.282666    1.989663   -1.239781
H     -1.383562   -0.140811   -0.444564
H      2.080198   -4.058674   -1.584054
H      0.521958   -5.808529   -0.849576
H     -1.567646   -6.539963    0.035948
H     -3.853041   -6.177280    0.933047
H     -5.634647   -4.241771    1.531368
H     -3.117287   -0.686820    0.300958
