45

C      7.394351   -1.234596   -1.198945
C      7.193268   -2.516093   -1.656282
S      5.538379   -2.938368   -1.670505
C      5.062551   -1.400339   -1.068326
C      6.167838   -0.593908   -0.856393
C      3.649071   -1.100579   -0.821182
C      2.630700   -1.492493   -1.670485
N      1.305533   -1.227587   -1.481403
C      0.849513   -0.537303   -0.413234
C      1.869989   -0.088791    0.476808
C      3.247450   -0.372170    0.286613
C      1.345503    0.634110    1.549483
C      2.031963    1.120498    2.632799
O      1.159576    1.704004    3.497585
C     -0.082708    1.593612    2.944906
C     -0.016258    0.995851    1.706109
C     -1.069417    0.675493    0.797331
C     -2.423277    1.179440    0.841844
C     -2.822231    2.296572    1.629989
C     -4.133626    2.761886    1.701619
C     -5.103734    2.135023    0.956648
C     -4.737830    1.079138    0.124003
C     -3.401886    0.585832    0.016402
C     -3.025978   -0.464857   -0.882424
C     -3.998314   -1.123123   -1.691976
C     -3.696649   -2.154133   -2.575782
C     -2.396204   -2.579411   -2.673546
C     -1.416583   -1.956370   -1.898554
C     -1.658148   -0.874012   -1.001495
C     -0.606221   -0.253329   -0.214002
H      8.372838   -0.777717   -1.114104
H      7.939002   -3.228045   -1.982873
H      6.103735    0.420592   -0.481031
H      2.834836   -2.048207   -2.582810
H      3.983119   -0.024117    1.005152
H      3.063776    1.113861    2.954380
H     -0.873444    1.961386    3.581790
H     -2.090596    2.885885    2.171319
H     -4.380023    3.617941    2.323185
H     -6.134732    2.475234    0.990754
H     -5.545324    0.654773   -0.464606
H     -5.047967   -0.850013   -1.650466
H     -4.478982   -2.621809   -3.165806
H     -2.127034   -3.396597   -3.336536
H     -0.428143   -2.390137   -2.003811
