21

C     -1.379844    2.311701    0.961326
C     -1.520553    1.301789    1.911180
C     -0.720374    0.155829    1.870277
C      0.224012    0.063363    0.841534
N      1.133141   -0.928996    0.554132
C      1.860695   -0.594367   -0.554236
C      2.969618   -1.485614   -1.153185
N      3.296370   -2.695493   -0.592559
C      4.252422   -3.104219   -1.388805
O      4.542179   -2.242907   -2.396743
N      3.680465   -1.154920   -2.239012
C      1.425004    0.631569   -1.000387
C      0.387711    1.059127   -0.124106
C     -0.430176    2.203575   -0.061384
H     -2.013220    3.193906    1.013041
H     -2.264729    1.405681    2.697687
H     -0.833045   -0.628281    2.611749
H      1.253932   -1.784280    1.078877
H      4.827259   -4.016936   -1.348564
H      1.806582    1.165787   -1.860817
H     -0.327039    2.995191   -0.797578
