29

C     -1.207516   -1.318296    3.172255
C     -1.444530   -0.500461    1.881381
N     -0.105229   -0.509178    1.173611
C      0.053547    0.021095   -0.086059
O     -0.882331    0.471242   -0.722179
N      1.367047   -0.051940   -0.483592
C      1.925016    0.475135   -1.668147
C      1.251038    1.318749   -2.547271
C      1.900731    1.794286   -3.687260
C      3.213228    1.413586   -3.910229
N      3.906334    0.605299   -3.081969
C      3.246131    0.158835   -1.986483
C     -1.933006    0.895943    2.265562
F     -3.011544    0.850073    3.080178
F     -0.954366    1.534729    2.965851
F     -2.244099    1.688963    1.226818
C     -2.610761   -1.146814    1.121284
F     -3.079944   -0.443306    0.078556
F     -3.667353   -1.361533    1.946644
F     -2.247260   -2.371232    0.657031
H     -0.413926   -0.871887    3.783165
H     -2.107574   -1.375505    3.794095
H     -0.898351   -2.343186    2.935427
H      0.690153   -0.328271    1.772503
H      1.952211   -0.681695    0.046326
H      0.224941    1.628097   -2.374792
H      1.388326    2.449204   -4.383561
H      3.756048    1.760237   -4.784985
H      3.841913   -0.488551   -1.349597
