25

C     -1.142247   -2.865970    3.994137
C     -0.189759   -3.115743    3.031790
C     -0.151628   -1.967649    2.197774
C      0.568191   -1.565209    1.064416
C      0.332886   -0.307533    0.480651
C      0.875095    0.383439   -0.639458
C      0.243450    1.604746   -0.726407
C      0.497274    2.701599   -1.781997
C      1.400056    2.706172   -2.859875
N      1.334524    3.841632   -3.561798
O      0.363240    4.604967   -2.929839
C     -0.130733    3.915735   -1.868351
N     -0.662449    1.682318    0.298763
C     -0.628130    0.530642    1.048983
C     -1.356216    0.152798    2.175289
C     -1.095379   -1.094253    2.721359
O     -1.697887   -1.638637    3.812562
H     -1.523207   -3.429227    4.834557
H      0.403686   -4.014099    2.942386
H      1.313044   -2.228497    0.633299
H      1.645771    0.012495   -1.302128
H      2.099737    1.943246   -3.168778
H     -0.897393    4.424820   -1.305348
H     -1.270655    2.466822    0.483937
H     -2.103361    0.801741    2.618984
