21

O      3.242723    2.158531    2.774993
C      2.555147    1.663484    1.890266
O      1.515187    0.791122    2.153116
C      0.741768    0.237726    1.113281
C      0.996998    0.550317   -0.227214
C      0.184361   -0.040057   -1.204390
C     -0.841422   -0.909310   -0.831032
F     -1.610324   -1.466170   -1.778032
C     -1.082748   -1.210122    0.504491
O     -2.091584   -2.063585    0.852988
C     -0.285979   -0.632767    1.481996
F     -0.499332   -0.907526    2.777327
C      2.095824    1.474749   -0.539686
C      2.401048    1.834840   -1.964167
C      2.809827    1.981311    0.476397
H      0.323809    0.155924   -2.263162
H     -2.528786   -2.358533    0.032622
H      2.667189    0.943416   -2.542086
H      3.244053    2.531147   -2.036715
H      1.539636    2.319598   -2.435799
H      3.633183    2.668483    0.313807
