36

C     -0.691319    3.814974   -5.291454
C     -0.259552    2.750508   -4.324573
C      0.067007    1.458787   -4.793435
C      0.444899    0.429981   -3.915185
C      0.488623    0.687100   -2.552959
C      0.145081    1.978935   -2.115954
C     -0.231753    3.014572   -2.952288
C      0.846143   -0.216875   -1.457535
C      1.233505   -1.545922   -1.516246
C      1.532828   -2.225351   -0.321255
C      1.451399   -1.595041    0.943712
C      1.771351   -2.337934    2.161478
O      1.663934   -1.646373    3.336534
C      2.175901   -3.631439    2.432632
C      2.321381   -3.731296    3.838585
C      1.997803   -2.494119    4.347357
C      1.944911   -1.934192    5.711578
C      1.059825   -0.251911    1.001673
C      0.772269    0.388076   -0.191531
S      0.263935    2.063500   -0.361749
O     -1.069320    2.200936    0.182584
O      1.376003    2.922405   -0.017792
H     -1.770751    3.751457   -5.459477
H     -0.450946    4.812294   -4.908331
H     -0.174826    3.702244   -6.250414
H      0.027543    1.247838   -5.861584
H      0.692834   -0.548559   -4.315289
H     -0.492493    3.988275   -2.549145
H      1.310624   -2.072025   -2.463211
H      1.835068   -3.268859   -0.390921
H      2.347530   -4.414439    1.708415
H      2.624492   -4.597721    4.409556
H      2.630707   -1.086525    5.804316
H      0.933226   -1.588144    5.944380
H      2.228182   -2.685033    6.455609
H      0.980175    0.282220    1.944058
