37

Si     0.278023    1.942361   -0.718195
C      0.628348    1.149279    0.933959
C      1.179439    1.430121    2.177877
C      1.067731    0.255087    2.917049
N      0.458866   -0.700256    2.114608
C      0.188411   -0.152183    0.896036
C     -0.427451   -0.670725   -0.312595
C     -0.921585   -1.932490   -0.532551
N     -1.478628   -2.309867   -1.707011
C     -1.562471   -1.425475   -2.718243
C     -2.162168   -1.926224   -3.898900
C     -2.372351   -1.214921   -5.098949
C     -1.909112    0.088164   -4.999320
C     -2.010978    0.963885   -6.051692
S     -1.359918    2.494851   -5.645325
C     -0.944989    1.972184   -4.057839
C     -1.288773    0.660422   -3.826144
C     -1.077421   -0.071996   -2.604211
C     -0.499821    0.289188   -1.359689
C      1.471879   -0.026937    4.261963
C      1.366994   -1.187584    5.006901
C      1.921406   -0.937660    6.287224
C      2.352192    0.368112    6.296522
N      2.076070    0.909795    5.068216
H     -0.740460    3.022981   -0.675733
H      1.491876    2.292392   -1.499791
H      1.609692    2.362807    2.516532
H      0.255501   -1.646485    2.402600
H     -0.892892   -2.703792    0.228995
H     -2.494226   -2.966813   -3.875885
H     -2.838628   -1.659617   -5.967862
H     -2.428511    0.797828   -7.035572
H     -0.471700    2.696606   -3.417952
H      0.938762   -2.124257    4.677296
H      1.996899   -1.635844    7.110758
H      2.829734    0.958396    7.066851
H      2.284341    1.858628    4.791160
