32

C     -5.939194   -0.966080   -2.145487
C     -5.015208   -0.212729   -2.845292
N     -3.801039    0.105551   -2.338582
C     -3.525918   -0.351298   -1.086020
C     -2.202295    0.002029   -0.534950
C     -1.974164    0.143779    0.844335
C     -0.707034    0.475472    1.345870
C      0.382049    0.684317    0.488642
C      1.711148    1.035401    1.017309
C      2.391600    2.178516    0.550525
C      3.657362    2.550966    1.027336
C      4.216039    1.723691    1.998724
N      5.394030    1.748431    2.690359
N      5.497037    0.716829    3.544076
N      4.389231   -0.005806    3.429096
C      3.588426    0.589220    2.490821
C      2.323660    0.233104    2.001741
C      0.160143    0.552977   -0.888079
C     -1.106296    0.221349   -1.387463
C     -4.470585   -1.118275   -0.401934
N     -5.690265   -1.439468   -0.906978
H     -6.907670   -1.211548   -2.565505
H     -5.225857    0.160112   -3.841031
H     -2.784203    0.020649    1.560011
H     -0.583608    0.586848    2.421960
H      1.919862    2.811587   -0.201607
H      4.161833    3.436528    0.656810
H      6.153978    2.414914    2.637285
H      1.841292   -0.661786    2.381620
H      0.976702    0.697526   -1.592834
H     -1.232792    0.128549   -2.465790
H     -4.274411   -1.521446    0.585497
