31

C     -0.483238   -7.303675   -0.194338
C      0.817924   -7.401559    0.236363
S      1.562785   -5.872328    0.366537
C      0.147513   -5.040251   -0.155165
C     -0.867190   -5.948335   -0.418783
C      0.072096   -3.592118   -0.286013
C     -1.042029   -2.873899   -0.701356
C     -0.749152   -1.497315   -0.707085
O     -1.506313   -0.391215   -1.034714
C     -0.668466    0.664577   -0.839503
C     -0.904377    2.182000   -1.027666
S     -2.309540    2.963684   -1.542388
C     -1.547446    4.509300   -1.407805
C     -0.234907    4.422697   -0.974253
C      0.106825    3.074826   -0.764075
C      1.367786    2.532117   -0.313820
C      2.464513    3.293783   -0.012781
S      3.773185    2.275829    0.487864
C      2.841934    0.828713    0.290994
C      1.584769    1.145940   -0.141456
C      0.545819    0.231574   -0.412498
C      0.515254   -1.153176   -0.320807
S      1.426754   -2.557573    0.078955
H     -1.130189   -8.159782   -0.342045
H      1.369821   -8.298579    0.481824
H     -1.854670   -5.664732   -0.760999
H     -1.997288   -3.295159   -0.981335
H     -2.106932    5.401170   -1.655356
H      0.401428    5.286033   -0.830510
H      2.600797    4.365309   -0.047090
H      3.289927   -0.130702    0.507228
