43

Si     1.715810    1.493053   -2.428619
C      0.239247    0.385787   -2.198114
C     -0.000106    0.139084   -0.891979
C     -0.965042   -0.845679   -0.398815
C     -0.890252   -1.188908    0.905662
C      0.027710   -0.531175    1.866221
C      0.087432   -1.031439    3.168594
C      0.865481   -0.399675    4.138384
C      1.514024    0.811544    3.883226
C      2.234278    1.419949    4.969825
C      2.863557    2.677294    4.925538
C      2.636806    3.303783    3.709671
C      3.052666    4.593975    3.487053
S      2.505785    5.164364    1.966693
C      1.707671    3.680910    1.626728
C      1.938555    2.720205    2.586711
C      1.400798    1.384327    2.563439
C      0.780417    0.616952    1.514722
C      0.909299    0.846790    0.048093
C      1.916326    1.497211   -0.573875
C     -1.954201   -1.515674   -1.192968
S     -3.260547   -0.602835   -1.882806
C     -3.961042   -1.980247   -2.622646
C     -3.238719   -3.112166   -2.353948
N     -3.590083   -4.341258   -2.824663
C     -2.702467   -5.285708   -2.408266
C     -1.582054   -5.041421   -1.604922
N     -1.213706   -3.824154   -1.121117
C     -2.084371   -2.851706   -1.526480
H      2.837279    0.814665   -3.121656
H      1.348817    2.828899   -2.957337
H     -0.255628   -0.054077   -3.049259
H     -1.554728   -1.944934    1.316607
H     -0.459679   -1.931353    3.441183
H      0.909657   -0.850884    5.128598
H      2.292975    0.882286    5.919015
H      3.382863    3.105170    5.772253
H      3.610915    5.250156    4.140589
H      1.107868    3.621139    0.731285
H      2.777403    1.968095   -0.128904
H     -4.862635   -1.894976   -3.211346
H     -2.918212   -6.294668   -2.748832
H     -0.926542   -5.860258   -1.321438
