47

C     -0.407210   -2.430501   -3.496993
C     -1.443894   -1.568313   -2.848797
C     -0.906643   -0.956545   -1.780902
C     -1.531081   -0.110527   -0.775309
C     -2.830157    0.402024   -0.903040
C     -3.358486    1.227892    0.087922
C     -2.536316    1.496872    1.173893
N     -1.276185    1.019770    1.325233
C     -0.771341    0.202971    0.365671
C      0.669221   -0.270127    0.541047
C      1.327874   -0.824977   -0.532893
C      2.839394   -0.945528   -0.512379
C      3.573514   -1.027392   -1.712930
C      4.965020   -1.158403   -1.723464
C      5.666047   -1.171709   -0.527807
C      4.977758   -1.010211    0.671972
C      3.577026   -0.870783    0.689711
C      2.838162   -0.546419    1.919171
C      3.361939   -0.517991    3.163716
Si     2.090263   -0.018566    4.426845
C      0.863684    0.086643    3.038872
C      1.402195   -0.190071    1.829878
C      0.497449   -1.313635   -1.647780
C      0.783091   -2.207159   -2.613585
C     -4.706318    1.786959   -0.004639
C     -5.635793    2.064037    0.985687
C     -6.788092    2.612508    0.373187
C     -6.539841    2.671952   -0.977155
N     -5.281685    2.176549   -1.196556
H     -0.709920   -3.481691   -3.489556
H     -0.206039   -2.110519   -4.523320
H     -2.469376   -1.517478   -3.178891
H     -3.428094    0.145378   -1.771379
H     -2.867150    2.141292    1.984321
H      3.076985   -0.957995   -2.676396
H      5.496118   -1.233725   -2.668713
H      6.748319   -1.267643   -0.527393
H      5.556094   -0.963310    1.589753
H      4.370562   -0.734991    3.471550
H      2.395655    1.295763    5.042819
H      1.792240   -1.111778    5.384225
H     -0.162465    0.319082    3.267787
H      1.709684   -2.743863   -2.745581
H     -5.505257    1.879838    2.044821
H     -7.697370    2.931583    0.866189
H     -7.146162    3.027638   -1.799443
H     -4.830332    2.127172   -2.099986
