40

C      7.359233    1.106710    0.738777
C      5.953522    1.232714    0.741437
C      5.409928   -0.057157    0.488382
C      4.232122   -0.709030    0.335102
S      4.623918   -2.381262    0.004221
C      6.336887   -2.127999    0.088132
C      6.546444   -0.824048    0.352265
N      7.754450   -0.205414    0.491457
C      2.884244   -0.233801    0.408230
S      1.564346   -0.849980   -0.540007
C      0.395169    0.240173    0.147235
C     -0.985347    0.236482   -0.289650
C     -1.626396    1.354328   -0.819146
N     -2.925635    1.441906   -1.240031
C     -3.788615    0.359318   -1.181748
C     -5.165340    0.506345   -1.660932
N     -5.754398   -0.543082   -2.246570
C     -6.994449   -0.323713   -2.673917
N     -7.664101    0.821041   -2.579669
C     -6.978355    1.798425   -1.994458
N     -5.740843    1.709026   -1.517340
C     -3.269668   -0.846474   -0.632427
N     -3.912580   -2.011233   -0.423890
S     -2.826948   -3.062624    0.245858
N     -1.489169   -2.096554    0.340894
C     -1.823797   -0.899162   -0.174146
C      1.050874    1.019540    1.037272
C      0.805126    2.070697    1.937543
C      2.043407    2.329941    2.536131
O      3.070467    1.523244    2.085744
C      2.394054    0.760146    1.180316
H      8.117797    1.862735    0.896175
H      5.410557    2.153512    0.909256
H      7.050701   -2.925802   -0.059304
H      8.677707   -0.615908    0.425748
H     -1.075183    2.287683   -0.940254
H     -7.505914   -1.156383   -3.144886
H     -7.474421    2.758020   -1.896255
H     -0.122805    2.580457    2.154084
H      2.347806    3.043174    3.291377
