38

C      5.597563   -3.856383    0.725007
S      4.359667   -4.981846    1.165952
C      3.121082   -3.782429    1.074119
C      3.686709   -2.594965    0.718428
C      5.090033   -2.595201    0.510990
C      5.901404   -1.513656    0.143122
C      5.210173   -0.290355   -0.035110
C      3.811489   -0.233682    0.158725
N      2.902020    0.794256    0.057541
C      1.633668    0.312833    0.355684
C      0.313648    0.851208    0.427401
C     -0.174616    2.155655    0.199468
C     -1.541792    2.423457    0.341037
C     -2.448390    1.423332    0.707407
C     -1.961242    0.123697    0.934728
C     -0.584232   -0.154214    0.792786
S      0.173169   -1.694176    1.032054
C      1.713558   -1.024579    0.650515
C      3.069394   -1.334682    0.520873
C     -3.883044    1.722138    0.853935
C     -4.610564    2.312226   -0.193175
C     -5.972100    2.595417   -0.054549
C     -6.629340    2.293673    1.135416
C     -5.927010    1.708643    2.185867
C     -4.565788    1.425055    2.045374
H      6.620910   -4.197356    0.651839
H      2.093481   -4.038798    1.284626
H      6.973431   -1.583606    0.000646
H      5.763087    0.600971   -0.321194
H      3.087753    1.757044   -0.190583
H      0.502259    2.957250   -0.082638
H     -1.893535    3.440038    0.171419
H     -2.644424   -0.677136    1.209343
H     -4.119529    2.544916   -1.135948
H     -6.518215    3.048211   -0.877938
H     -7.688195    2.513267    1.243795
H     -6.436220    1.473385    3.116819
H     -4.034032    0.976737    2.882435
