39

C     -0.895061    1.377345    6.063062
C      0.456655    0.869404    6.509294
O      0.710855    0.822215    7.714094
C      1.389891    0.460010    5.456022
C      1.189510    0.477831    4.062758
C      2.307305    0.009361    3.303985
C      3.306901   -0.340956    4.213977
C      4.426004   -0.804147    3.590344
S      4.207036   -0.792203    1.891636
C      2.587778   -0.157218    1.979012
C      1.820120    0.089944    0.772621
C      2.214953   -0.121797   -0.542302
C      1.222310    0.223020   -1.527363
C      0.097270    0.690551   -0.887060
S      0.223789    0.714784    0.797098
C     -1.149331    1.141780   -1.705902
S     -2.594661    1.735309   -1.044943
C     -3.277427    1.934219   -2.596759
C     -2.403556    1.549366   -3.591333
C     -1.140769    1.078161   -3.085068
C      0.039884    0.589066   -3.722557
C      0.108010    0.496340   -5.235442
C      1.206096    0.167042   -2.954145
C      2.417837   -0.339484   -3.713994
S      2.967800   -0.133091    5.964915
H     -1.428403    0.596535    5.514134
H     -1.490995    1.647832    6.940204
H     -0.776001    2.269037    5.441650
H      0.260737    0.820977    3.627096
H      5.340774   -1.140466    4.059320
H      3.189305   -0.513983   -0.804634
H     -4.280933    2.321373   -2.708382
H     -2.663176    1.604930   -4.640792
H      0.918081    1.124898   -5.618124
H      0.267214   -0.541147   -5.545312
H     -0.815106    0.836133   -5.712001
H      3.233375   -0.628891   -3.046466
H      2.805129    0.442086   -4.374983
H      2.154336   -1.223955   -4.302236
