40

C     -0.249654   -2.508455   -4.071238
N     -0.215947   -1.755893   -2.821728
C     -1.084270   -2.102353   -1.771195
C     -2.092824   -3.073428   -1.856200
C     -2.913905   -3.367537   -0.759314
C     -2.746407   -2.691994    0.445693
C     -1.762787   -1.714899    0.552020
C     -0.950079   -1.422217   -0.547700
O     -0.013152   -0.432507   -0.349137
C      0.692089    0.028199   -1.448510
C      1.506852    1.164466   -1.240294
C      1.598356    1.839958    0.065427
C      2.809107    1.895732    0.763070
C      2.885293    2.542635    1.999119
C      1.772822    3.146167    2.567099
N      1.888082    3.761842    3.761046
C      0.765599    4.327260    4.254034
C     -0.437222    4.284579    3.580467
N     -0.571450    3.674434    2.383744
C      0.538049    3.100945    1.873855
C      0.476092    2.454104    0.644682
C      2.241892    1.657429   -2.328233
C      2.161163    1.046877   -3.577299
C      1.350990   -0.076497   -3.761085
C      0.609363   -0.620085   -2.702817
H      0.726579   -2.533020   -4.567440
H     -0.984886   -2.077693   -4.759221
H     -0.490228   -3.565580   -3.915689
H     -2.279571   -3.616646   -2.776328
H     -3.688128   -4.125185   -0.852262
H     -3.383099   -2.920225    1.295943
H     -1.627061   -1.173529    1.484206
H      3.701500    1.424722    0.355356
H      3.832081    2.573676    2.532400
H      0.862454    4.819875    5.214416
H     -1.332587    4.741914    3.984860
H     -0.480509    2.428343    0.125467
H      2.872005    2.536939   -2.209904
H      2.725637    1.450076   -4.414589
H      1.308985   -0.500554   -4.758811
