30

C      4.850635   -0.476649    1.342541
C      4.755158   -0.246475    2.694433
S      3.133062   -0.089307    3.202402
C      2.523893   -0.331564    1.611280
C      1.109710   -0.312110    1.293764
C      0.548745   -0.124026    0.044063
C     -0.887975   -0.167730    0.035666
C     -1.737437    0.021562   -1.300102
C     -3.111805    0.002837   -1.418689
C     -3.552678    0.204186   -2.762529
C     -2.500122    0.370151   -3.631034
S     -0.996352    0.283529   -2.829074
C     -1.381985   -0.388881    1.309275
C     -2.732839   -0.515054    1.778049
C     -3.484366   -1.671591    1.846167
C     -4.787136   -1.437473    2.377031
C     -4.980384   -0.113261    2.702944
S     -3.597146    0.839148    2.373144
S     -0.117783   -0.551764    2.460179
C      3.568103   -0.523330    0.720384
H      5.792277   -0.605944    0.823208
H      5.560003   -0.162179    3.411691
H      1.149142    0.048073   -0.840355
H     -3.803461   -0.142619   -0.602953
H     -4.591023    0.226757   -3.070080
H     -2.541066    0.539335   -4.698305
H     -3.117092   -2.641025    1.530513
H     -5.540838   -2.202648    2.517636
H     -5.864743    0.343802    3.125453
H      3.427331   -0.698926   -0.339134
