36

Si     2.134400    0.217702    3.616485
C      1.858850   -1.278129    4.724794
C      0.969648   -2.154737    4.223960
C      0.431854   -1.731724    2.937316
C      0.881265   -0.494740    2.371020
C      0.435054    0.050340    1.103370
C      0.877458    1.258920    0.555541
N      0.473096    1.788025   -0.629060
C     -0.438573    1.102884   -1.362693
C     -0.960754   -0.109917   -0.936823
C     -0.523870   -0.636484    0.296689
C     -0.954178   -1.860560    0.879737
C     -1.861422   -2.761458    0.375593
N     -1.961747   -3.795657    1.284234
C     -1.131979   -3.568979    2.361757
C     -0.496628   -2.375011    2.133752
C     -0.807012    1.761023   -2.623017
S     -1.965643    1.072486   -3.746549
C     -1.837674    2.371949   -4.881696
C     -0.951919    3.252338   -4.387266
O     -0.562752    4.417907   -4.971534
C      0.332473    4.866010   -4.017188
C      0.471925    4.011341   -2.917018
C     -0.394317    2.931185   -3.175023
H      1.652781    1.479158    4.231197
H      3.507812    0.267843    3.057644
H      2.388694   -1.372925    5.660273
H      0.670864   -3.076236    4.702853
H      1.607134    1.880466    1.067208
H     -1.688459   -0.653551   -1.525621
H     -2.447496   -2.778734   -0.532790
H     -2.559306   -4.604983    1.175140
H     -1.080893   -4.279209    3.175450
H     -2.391018    2.421614   -5.807779
H      0.795052    5.813373   -4.260792
H      1.113608    4.165622   -2.061133
