46

C      0.632789   -3.613789   -0.722372
C      0.991576   -2.226728   -1.265496
C     -0.321060   -1.428887   -1.541309
O     -1.353514   -1.983703   -1.916138
N     -0.190759   -0.055217   -1.523151
C     -1.293955    0.814548   -1.874437
C     -0.848050    2.268998   -2.023580
C     -2.106864    3.061789   -1.717588
C     -2.704038    2.307381   -0.541463
C     -2.429627    0.835274   -0.840790
C      1.739094   -2.365906   -2.605248
C      2.640302   -1.137992   -2.674927
C      2.927308   -0.850057   -1.225605
O      3.817965   -0.123701   -0.816859
N      1.987214   -1.518126   -0.452984
C      2.011741   -1.497089    1.002044
C      1.098916   -0.460568    1.601376
C     -0.127978   -0.827341    2.169819
C     -0.956037    0.137827    2.745516
C     -0.571922    1.477526    2.748652
C      0.640297    1.855753    2.176023
C      1.473144    0.892091    1.607397
H      1.530498   -4.194016   -0.480993
H      0.048389   -4.188475   -1.450028
H      0.028870   -3.538495    0.188543
H      0.521767    0.311311   -0.900768
H     -1.700570    0.459280   -2.830480
H     -0.062913    2.519928   -1.299179
H     -0.456348    2.479537   -3.023595
H     -1.893442    4.106903   -1.476481
H     -2.791335    3.037127   -2.573604
H     -2.194779    2.599545    0.383723
H     -3.771066    2.512228   -0.414185
H     -3.324169    0.369934   -1.271951
H     -2.193806    0.286067    0.074464
H      1.077379   -2.430567   -3.475549
H      2.370896   -3.264217   -2.603651
H      3.563674   -1.350988   -3.219261
H      2.132012   -0.278867   -3.121587
H      3.036478   -1.284299    1.332474
H      1.780691   -2.496411    1.384538
H     -0.446577   -1.867312    2.176722
H     -1.904494   -0.155427    3.188703
H     -1.219142    2.227309    3.196301
H      0.942029    2.900081    2.179461
H      2.425268    1.198435    1.174887
