28

C     -2.063229    3.737267   -3.818748
C     -1.423061    4.397751   -2.789013
N     -1.056409    3.800701   -1.635751
C     -1.339417    2.488053   -1.497149
C     -0.986069    1.827364   -0.329353
C     -1.256779    0.465271   -0.138056
C     -0.879877   -0.236092    1.099198
C      0.431879   -0.141154    1.608719
C      0.835925   -0.793083    2.783695
C     -0.136514   -1.549920    3.432412
N     -0.134706   -2.308890    4.568684
N     -1.334882   -2.864137    4.802836
N     -2.148074   -2.479370    3.826549
C     -1.439162   -1.675564    2.974572
C     -1.824455   -1.016228    1.798125
C     -1.900539   -0.182456   -1.188520
N     -2.269467    0.410806   -2.347926
C     -1.988725    1.720928   -2.486528
C     -2.342590    2.383066   -3.651527
H     -2.340032    4.257121   -4.728828
H     -1.180269    5.454120   -2.863442
H     -0.496787    2.402816    0.453532
H      1.175693    0.450161    1.073174
H      1.851126   -0.708008    3.155928
H      0.621306   -2.490728    5.216868
H     -2.850575   -1.109854    1.456357
H     -2.140937   -1.242164   -1.134332
H     -2.845601    1.831482   -4.441259
