38

Si     1.646900   -2.843772    4.163483
C      1.344222   -2.210824    5.914895
C      0.605886   -1.088292    5.902240
C      0.211342   -0.617524    4.582778
C      0.632222   -1.361254    3.532987
C      0.407544   -1.160521    2.096191
C     -0.332965   -0.076477    1.623926
C     -0.484006    0.016899    0.238447
N     -1.149143    0.957001   -0.524677
C     -1.044518    0.663993   -1.869970
C     -0.290966   -0.490948   -1.913019
C      0.075871   -0.923984   -0.629101
C      0.803395   -1.980378   -0.078434
N      0.956810   -2.081300    1.267956
C      0.008738   -1.074332   -3.183076
N      0.724492   -2.180168   -3.313471
S      0.760172   -2.398946   -4.973044
N     -0.136991   -1.079075   -5.478485
C     -0.508453   -0.402060   -4.369431
C     -1.292266    0.799084   -4.325953
C     -1.783941    1.432759   -5.508572
C     -2.553438    2.609936   -5.486449
C     -2.831100    3.160132   -4.211455
N     -3.544515    4.272236   -3.981432
S     -3.576617    4.484070   -2.336797
N     -2.686160    3.174275   -1.833455
C     -2.321571    2.507400   -2.946031
C     -1.545217    1.315382   -3.012448
H      0.983447   -4.161443    3.983494
H      3.097247   -2.772661    3.846837
H      1.738726   -2.726619    6.775550
H      0.311382   -0.552144    6.796118
H     -0.384986    0.282369    4.505727
H     -0.772392    0.659978    2.283206
H     -1.650633    1.758733   -0.161517
H      1.272570   -2.755816   -0.673812
H     -1.555717    0.988137   -6.479465
H     -2.917533    3.075890   -6.394840
