39

C      0.230725   -3.600248   -6.329061
C      0.079994   -3.141072   -5.015207
C      1.009056   -3.733556   -4.117541
C      1.257307   -3.608489   -2.788893
S      2.587065   -4.649894   -2.412115
C      2.750340   -5.206888   -4.033410
C      1.821985   -4.610075   -4.836097
S      1.508571   -4.776631   -6.601212
C      0.635857   -2.811698   -1.746589
C      1.330242   -1.956118   -0.889352
N      0.810149   -1.174622    0.108456
C     -0.539285   -1.163372    0.377757
C     -1.048303   -0.327742    1.463935
N     -2.194164   -0.492497    2.099496
C     -2.358392    0.486952    3.058152
C     -1.332596    1.402289    3.165114
S     -0.108801    1.008291    2.033201
C     -1.179859    2.518518    4.080752
C     -1.129522    2.343486    5.481331
C     -0.990070    3.417197    6.391862
C     -0.896350    4.759093    5.985351
C     -0.954663    4.999501    4.591105
N     -0.891908    6.204875    4.005404
S     -1.015571    5.939634    2.371688
N     -1.159565    4.288327    2.332798
C     -1.102901    3.859877    3.606884
C     -1.380188   -1.986292   -0.415995
N     -2.716931   -2.129901   -0.355243
S     -3.151247   -3.232148   -1.505879
N     -1.676255   -3.570507   -2.172847
C     -0.761878   -2.836367   -1.511782
H     -0.357517   -3.305741   -7.187642
H     -0.678214   -2.418037   -4.740053
H      3.500502   -5.928049   -4.327506
H      2.412013   -1.853695   -0.986635
H     -3.260690    0.485717    3.658037
H     -1.189024    1.332994    5.889298
H     -0.951681    3.193057    7.458669
H     -0.789580    5.571525    6.694459
