21

C     -3.681355   -3.277727    0.225977
N     -2.472728   -2.917647   -0.123105
C     -2.201211   -1.912062    0.782633
C     -0.833385   -1.115255    0.801898
N     -0.577918   -0.155643    1.668429
C      0.686580    0.356515    1.447351
C      1.298521    1.386595    2.172889
C      2.585799    1.811480    1.845119
S      3.556301    3.038794    2.563326
C      4.802614    2.694046    1.441245
N      4.559224    1.739238    0.572511
C      3.292631    1.226260    0.793984
C      2.679853    0.196220    0.068996
C      1.392500   -0.228139    0.397373
S      0.423070   -1.453419   -0.319313
N     -3.199476   -1.667341    1.647955
O     -4.185452   -2.580385    1.273608
H     -4.314344   -4.040342   -0.202136
H      0.755313    1.848001    2.993106
H      5.738478    3.237602    1.452707
H      3.223149   -0.265041   -0.751115
