50

C     -1.079576   -0.795461   -0.890508
C     -1.252759   -0.878319   -2.391980
C     -0.142715   -0.510426   -3.053397
C      0.864095   -0.180387   -2.061473
C      2.151096    0.260353   -2.251696
C      2.944234    0.519846   -1.122569
C      2.516272    0.340625    0.222876
C      1.142546   -0.078633    0.365056
C      0.348075   -0.343392   -0.775230
C      0.747693   -0.156095    1.726497
C     -0.487872   -0.512950    2.218505
N     -0.433512   -0.437698    3.590823
C      0.818268   -0.036394    3.986997
C      1.576178    0.144972    2.851112
C      2.928642    0.541452    2.805513
C      3.698079    0.832122    4.010078
C      5.050602    1.191505    4.006977
C      5.534019    1.190562    2.713226
C      6.846223    1.442467    2.405917
N      6.965972    1.295170    1.048755
C      5.747775    0.944975    0.500173
C      4.802688    0.913348    1.503411
C      3.398815    0.593848    1.416353
C     -2.518786   -1.267643   -2.989616
C     -3.758001   -0.667320   -2.656115
C     -5.013671   -1.038060   -3.237816
C     -5.164301   -2.052883   -4.205468
C     -3.946525   -2.655384   -4.520627
C     -3.852458   -3.683057   -5.426209
S     -2.232587   -4.233937   -5.575358
C     -1.660013   -3.094222   -4.421158
C     -2.670946   -2.290133   -3.945245
H     -1.758105   -0.054012   -0.458109
H     -1.219411   -1.779976   -0.433359
H      0.004248   -0.445931   -4.119441
H      2.549284    0.419389   -3.248434
H      3.926939    0.917691   -1.333174
H     -1.410360   -0.815404    1.748192
H     -1.201480   -0.648126    4.215196
H      1.039435    0.072996    5.039197
H      3.206991    0.766089    4.979144
H      5.619090    1.398741    4.901284
H      7.703399    1.689224    3.017457
H      7.827215    1.392368    0.526895
H      5.721151    0.735122   -0.555515
H     -3.767796    0.142943   -1.925970
H     -5.904308   -0.498927   -2.912808
H     -6.122644   -2.318505   -4.631465
H     -4.636046   -4.151529   -6.005460
H     -0.609971   -3.092385   -4.164973
