33

O      1.044478   -3.483822   -2.407532
C      0.926572   -2.277178   -2.233155
C      0.036152   -1.482616   -3.117469
C     -0.743154   -0.439652   -2.785079
C     -0.910608    0.142838   -1.449566
C     -0.602463    1.506098   -1.252842
C     -0.722602    2.092480    0.011647
C     -1.158229    1.296375    1.048067
C     -1.475945   -0.027770    0.859407
C     -1.370126   -0.632849   -0.375181
O     -1.885054   -0.631683    2.007408
C     -1.783741    0.463678    2.940115
O     -1.327020    1.692447    2.337714
N      1.615622   -1.559666   -1.302537
C      2.520289   -2.175019   -0.364537
C      2.510704   -1.359767    0.873913
C      1.924165   -1.523860    2.111924
C      2.254607   -0.372790    2.866256
C      3.015693    0.421060    2.041248
O      3.176901   -0.168204    0.828799
H      0.008611   -1.862053   -4.135279
H     -1.340968    0.031671   -3.562908
H     -0.252976    2.114558   -2.084754
H     -0.478060    3.135993    0.173917
H     -1.623406   -1.681082   -0.494195
H     -2.770375    0.637442    3.384851
H     -1.084654    0.182696    3.736266
H      1.560035   -0.550007   -1.296897
H      3.517127   -2.188943   -0.816369
H      2.216102   -3.207057   -0.162713
H      1.321254   -2.366393    2.421716
H      1.968595   -0.144692    3.882962
H      3.491373    1.384597    2.159183
