41

Si     0.942811   -2.716539    5.097490
C      2.497070   -3.091927    4.151072
C      2.479941   -2.508022    2.937573
C      3.480866   -2.774257    1.931478
C      3.317482   -2.305044    0.686103
C      2.177585   -1.441891    0.359119
C      1.966893   -0.943995   -0.926517
C      2.661192   -1.217575   -2.078214
O      2.121686   -0.520942   -3.121700
C      1.078114    0.208651   -2.627141
C      0.944431   -0.021043   -1.280828
C      0.041929    0.549719   -0.380041
C     -0.928964    1.504035   -0.702074
O     -1.224900    1.998297   -1.937011
C     -2.239120    2.914525   -1.807486
C     -2.577760    3.001286   -0.466007
C     -1.742440    2.101835    0.245651
C     -1.567572    1.749611    1.588656
C     -0.599389    0.778154    1.921646
C      0.209409    0.096453    0.977291
C      1.197925   -0.957341    1.308588
C      1.295512   -1.652819    2.645204
C      0.356995   -1.729895    3.614718
C     -2.777411    3.609810   -2.940931
C     -2.392437    3.476135   -4.262344
N     -3.069069    4.263321   -5.177175
C     -3.961322    4.986455   -4.539027
S     -4.039313    4.769141   -2.840691
H      0.109141   -3.918955    5.336120
H      1.181414   -1.855146    6.280527
H      3.241333   -3.769995    4.537795
H      4.332048   -3.398958    2.181465
H      4.052878   -2.530475   -0.076960
H      3.504352   -1.843185   -2.333678
H      0.563735    0.823161   -3.352255
H     -3.336911    3.643847   -0.042361
H     -2.151839    2.225300    2.371525
H     -0.455917    0.609557    2.984744
H     -0.643813   -1.337578    3.626855
H     -1.614102    2.810581   -4.617384
H     -4.613374    5.681981   -5.051288
