35

C     -5.235625    3.746158   -1.931365
C     -4.069350    3.304625   -2.537478
C     -3.194059    2.618067   -1.698590
N     -1.968979    2.050374   -1.956773
C     -1.452315    1.469680   -0.822571
C     -0.251910    0.788147   -0.619268
C     -0.043753    0.324451    0.674541
C      1.159304   -0.407745    1.057373
C      2.287014   -0.800251    0.345922
C      3.142716   -1.490031    1.233732
N      4.357489   -2.070073    1.040124
C      4.893238   -2.653209    2.146989
C      6.106498   -3.341892    2.351946
C      6.111602   -3.709374    3.680784
O      4.977382   -3.290819    4.309710
C      4.229670   -2.644091    3.373656
N      3.025848   -2.076560    3.592064
C      2.523354   -1.508646    2.477489
N      1.334377   -0.855439    2.355665
N     -0.916424    0.498623    1.697016
C     -2.076884    1.165026    1.472992
C     -2.376013    1.669835    0.202175
C     -3.477244    2.395672   -0.350816
C     -4.685207    2.884020    0.163905
N     -5.553612    3.555273   -0.632320
H     -5.980592    4.292037   -2.505310
H     -3.864145    3.485096   -3.584453
H     -1.511525    2.059188   -2.857453
H      0.462681    0.634550   -1.416556
H      2.483874   -0.615578   -0.700475
H      6.876791   -3.543316    1.623136
H      6.813213   -4.246362    4.304635
H      0.663619   -0.709529    3.097726
H     -2.738876    1.276351    2.324398
H     -4.984620    2.756228    1.197870
