27

C     -3.208765   -3.592912   -0.558169
O     -2.624476   -2.726012    0.405505
C     -1.688956   -1.838223   -0.048691
C     -1.144528   -1.009061    0.934033
C     -0.176190   -0.054230    0.607121
C     -1.255437   -1.704514   -1.367268
C     -0.285166   -0.748159   -1.696345
C      0.265368    0.087424   -0.714113
C      1.277199    1.085990   -1.052302
N      1.747930    1.278863   -2.293716
N      2.638613    2.276581   -2.117552
C      3.443653    2.901681   -3.062342
C      4.273810    3.884345   -2.687637
C      4.243167    4.215757   -1.234360
N      3.503611    3.650730   -0.329608
C      2.677096    2.654882   -0.772432
N      1.826828    1.912617   -0.101907
H     -2.454129   -4.242188   -1.014304
H     -3.755799   -3.026250   -1.318922
H     -3.928412   -4.233236   -0.038991
H     -1.475648   -1.105144    1.965277
H      0.230735    0.578605    1.393868
H     -1.647990   -2.324900   -2.165712
H      0.038482   -0.661149   -2.731869
H      3.350130    2.546622   -4.079578
H      4.933123    4.423694   -3.352028
H      4.927540    5.025126   -0.928401
