42

C      2.947680   -0.897038   -4.793277
C      3.407044    0.137965   -5.617613
C      2.921177    1.313274   -5.024934
C      2.935442    2.649671   -5.210241
S      2.023164    3.368390   -3.913478
C      1.656357    1.842012   -3.171468
C      0.883700    1.670987   -1.979680
C      0.295740    2.636051   -1.167641
C     -0.328488    1.915875   -0.152319
C     -1.046982    2.326103    0.990156
C     -1.241815    3.633667    1.325286
S     -2.041689    3.690636    2.839117
C     -2.063931    1.964758    2.966822
C     -1.567414    1.313901    1.852778
C     -1.489828   -0.124971    1.689927
C     -2.127119   -1.202684    2.510433
C     -3.120887   -1.004965    3.486248
N     -3.694089   -1.945107    4.287790
C     -3.300523   -3.214486    4.113203
C     -2.388597   -3.591323    3.153048
C     -1.818567   -2.587530    2.333724
C     -0.929250   -2.835233    1.253065
C     -0.509134   -4.096686    0.889423
S      0.527127   -4.066310   -0.472754
C      0.417423   -2.360079   -0.590034
C     -0.388193   -1.812420    0.386175
C     -0.642768   -0.433440    0.540124
C     -0.137883    0.570199   -0.317240
O      0.615203    0.424852   -1.451133
C      2.228637    0.875430   -3.920900
O      2.200133   -0.471766   -3.710866
H      3.068359   -1.971480   -4.844434
H      4.004697    0.021780   -6.510127
H      3.394774    3.252330   -5.980762
H      0.338013    3.705640   -1.313084
H     -0.950141    4.540007    0.813281
H     -2.428570    1.575796    3.902673
H     -3.575398   -0.034637    3.642496
H     -3.766298   -3.944564    4.768132
H     -2.144099   -4.640256    3.041236
H     -0.742957   -5.053813    1.331730
H      0.970311   -1.876080   -1.382449
