33

N     -2.127510    2.043556    3.100586
C     -2.316158    1.953171    1.958625
C     -2.583583    1.859463    0.549993
C     -3.570667    2.697494    0.005907
C     -3.862188    2.655841   -1.357006
C     -3.170113    1.778660   -2.185690
C     -2.187121    0.942099   -1.652369
C     -1.876614    0.963974   -0.279101
C     -0.832210    0.061477    0.231110
C     -1.162902   -1.050993    1.024519
C     -0.169948   -1.910936    1.502966
C      1.164366   -1.668738    1.188433
C      1.507936   -0.573309    0.400268
C      0.519143    0.287789   -0.077693
O      2.808268   -0.293852    0.061556
C      3.747254   -1.163970    0.555766
C      5.083215   -0.918386    0.241850
C      6.075748   -1.775352    0.721078
C      5.730496   -2.873758    1.511558
C      4.391958   -3.117630    1.824552
C      3.402611   -2.260495    1.344891
O      2.101804   -2.541691    1.679194
H     -4.116516    3.390503    0.644591
H     -4.627528    3.307970   -1.771380
H     -3.394222    1.742494   -3.249389
H     -1.660503    0.259278   -2.318297
H     -2.201759   -1.257487    1.276347
H     -0.438644   -2.764417    2.119227
H      0.808840    1.140075   -0.688192
H      5.350404   -0.063090   -0.372093
H      7.118754   -1.586454    0.479220
H      6.504766   -3.539539    1.884777
H      4.121873   -3.970875    2.440163
