34

C     -0.135693    4.067115    1.379368
O     -0.290579    3.390327    0.138526
C     -1.013383    2.230259    0.152822
C     -1.675135    1.688237    1.255003
C     -2.372504    0.480527    1.133075
C     -2.410231   -0.194074   -0.089743
S     -3.254086   -1.753890   -0.242930
C     -2.047104   -2.840815    0.584648
C     -0.772706   -2.967481   -0.239522
O     -0.697609   -3.764714   -1.170491
N      0.230342   -2.110926    0.181858
C      1.522375   -1.935877   -0.368695
C      2.009317   -2.686783   -1.441427
C      3.294933   -2.457499   -1.945460
C      4.109589   -1.477078   -1.383586
C      3.642033   -0.721895   -0.310961
C      2.358920   -0.951152    0.192842
Cl     1.831090    0.006095    1.537769
C     -1.766350    0.358575   -1.197286
C     -1.068805    1.562188   -1.072323
H     -1.100604    4.419266    1.758554
H      0.493740    4.945060    1.204996
H      0.371899    3.434305    2.115059
H     -1.671544    2.180342    2.221935
H     -2.889505    0.078827    2.001481
H     -1.830807   -2.479708    1.595237
H     -2.483739   -3.839589    0.688651
H      0.004975   -1.454605    0.924063
H      1.413940   -3.461330   -1.914944
H      3.656106   -3.050371   -2.783180
H      5.106418   -1.303440   -1.781252
H      4.279033    0.041541    0.127540
H     -1.787832   -0.145580   -2.161063
H     -0.560600    1.980516   -1.938081
