35

F     -0.573232   -1.679313   -0.856928
B      0.515904   -0.854882   -1.355773
F      0.017062   -0.139021   -2.544650
N      1.676970   -1.719908   -1.853801
C      3.009802   -1.573808   -1.412242
C      3.322358   -0.644292   -0.512332
C      2.276583    0.221331    0.013186
N      0.987782    0.158899   -0.343648
C      0.254765    1.100093    0.322223
C      1.127222    1.777847    1.129083
C      2.380384    1.251545    0.953880
C      3.607865    1.714068    1.652292
C     -1.196884    1.306396    0.166394
C     -1.830995    2.240640    0.849197
C     -3.242734    2.505637    0.754910
C     -4.185161    1.875634   -0.025787
C     -5.420193    2.483350    0.226106
O     -5.213106    3.429921    1.116512
C     -3.935947    3.471558    1.452085
C      3.812132   -2.577733   -2.117695
C      2.973199   -3.212723   -2.878669
C      1.638642   -2.692800   -2.728180
H      4.340729   -0.563983   -0.202814
H      0.836379    2.590100    1.783629
H      3.925788    2.667057    1.155722
H      4.387778    0.952971    1.592703
H      3.349649    2.003386    2.702989
H     -1.776864    0.699023   -0.509458
H     -1.212013    2.836153    1.523607
H     -4.003508    1.072784   -0.697491
H     -6.367389    2.243937   -0.208263
H     -3.558967    4.182876    2.172941
H      4.888580   -2.709246   -1.983020
H      3.216068   -4.032426   -3.551043
H      0.724545   -3.031745   -3.243384
