45

C      1.766385    4.452893    0.152704
C      1.466615    5.861249   -0.277512
C      0.410948    5.867411   -1.104829
C     -0.068632    4.515657   -1.292535
C      0.704987    3.676910   -0.570444
C      0.503584    2.215343   -0.524918
C      1.349738    1.406577    0.248846
C      1.138555    0.013841    0.278255
S      2.055601   -1.151582    1.153042
C      1.097742   -2.452775    0.598313
C      0.101389   -2.008903   -0.246135
C      0.108229   -0.587330   -0.441368
C     -0.738999    0.237516   -1.220558
C     -0.550081    1.628866   -1.267519
C     -1.422764    2.524476   -2.075855
C     -2.468487    2.150325   -2.843683
Si    -3.264957    3.627908   -3.673982
C     -2.003348    4.715075   -2.836083
C     -1.162225    3.986904   -2.075375
C      1.394643   -3.807403    1.029394
C      2.657226   -4.443641    0.907374
C      2.923520   -5.796926    1.322016
C      1.961124   -6.655373    1.901128
C      0.736112   -6.011209    2.013501
C     -0.406575   -6.550738    2.544140
N     -1.376036   -5.572379    2.481915
C     -0.861426   -4.422593    1.918019
C      0.454242   -4.670705    1.605376
H      2.771799    4.159387   -0.164864
H      1.673051    4.354246    1.238710
H      2.024004    6.729872    0.038140
H     -0.027409    6.737048   -1.568887
H      2.164715    1.832350    0.825890
H     -0.610606   -2.677322   -0.715409
H     -1.539772   -0.233095   -1.781826
H     -2.857026    1.160118   -3.011239
H     -3.105967    3.598651   -5.147926
H     -4.643762    3.871375   -3.185645
H     -1.997162    5.783195   -2.980399
H      3.483308   -3.885806    0.464606
H      3.934054   -6.180898    1.177409
H      2.173433   -7.668154    2.211174
H     -0.627383   -7.521944    2.965309
H     -2.326119   -5.677543    2.813276
H     -1.483359   -3.544815    1.807858
