26

C      2.636507    3.045761    0.655738
C      3.361299    2.448145    1.681961
C      3.051878    1.156665    2.120102
C      1.990382    0.479887    1.496458
S      1.375387   -1.093984    1.804675
C      0.190948   -0.896116    0.568834
C     -0.789843   -1.955230    0.238367
C     -1.724971   -1.705916   -0.790062
C     -2.695599   -2.640456   -1.181464
C     -2.691322   -3.849256   -0.492574
N     -3.453134   -4.980588   -0.574395
N     -3.068639   -5.909098    0.316427
N     -2.047831   -5.405621    0.999656
C     -1.797001   -4.146121    0.524079
C     -0.833108   -3.197974    0.901386
N      0.236865    0.269667   -0.048083
C      1.250689    1.058551    0.466829
C      1.581717    2.361494    0.042690
H      2.888936    4.050812    0.325802
H      4.179625    2.990929    2.150828
H      3.618080    0.691080    2.921070
H     -1.700711   -0.746626   -1.310510
H     -3.401748   -2.422181   -1.975064
H     -4.228010   -5.188205   -1.191904
H     -0.148561   -3.460260    1.699417
H      1.013377    2.823528   -0.758290
