43

C      4.396589   -3.914082    0.218798
N      3.383033   -2.942122   -0.093946
C      3.561209   -1.873232   -0.979611
C      4.676739   -1.599437   -1.755824
C      4.602133   -0.537046   -2.656387
C      3.417368    0.201116   -2.784853
C      2.302189   -0.091774   -1.990703
C      2.399317   -1.095076   -1.038234
C      1.432003   -1.699529   -0.103159
C      0.227172   -1.266814    0.308330
C     -0.375082    0.078563    0.260470
C      0.144612    1.346229    0.059967
C     -0.710734    2.453733    0.150336
C     -2.072047    2.308248    0.490575
C     -2.933268    3.496309    0.562807
C     -3.024714    4.550261   -0.329283
C     -3.962912    5.541417    0.082330
C     -4.555406    5.220325    1.281730
S     -3.981474    3.735676    1.902821
C     -2.568926    1.026424    0.765388
C     -1.705137   -0.055969    0.670351
N     -1.976788   -1.389964    0.997334
C     -3.261276   -1.874325    1.429098
C     -0.861037   -2.203240    0.803761
O     -0.836932   -3.415840    0.885235
C      2.118326   -2.916865    0.491999
O      1.730481   -3.642243    1.387109
H      5.256639   -3.407734    0.666965
H      4.015587   -4.655335    0.926868
H      4.702922   -4.427398   -0.697421
H      5.577618   -2.199119   -1.692823
H      5.456163   -0.300879   -3.287334
H      3.357810    0.995369   -3.526340
H      1.376927    0.445363   -2.164405
H      1.199993    1.510811   -0.125240
H     -0.296025    3.447192   -0.015154
H     -2.449921    4.606131   -1.246001
H     -4.190223    6.443072   -0.473126
H     -5.297970    5.786666    1.827032
H     -3.603662    0.882774    1.057498
H     -3.998352   -1.695670    0.640612
H     -3.219664   -2.947315    1.636284
H     -3.558798   -1.350726    2.342410
