33

C      0.302732    4.232783   -2.941698
C      0.129323    3.110357   -1.988870
C     -1.005336    2.722621   -1.291375
C     -2.344849    3.356692   -1.337023
N     -0.613723    1.612626   -0.542048
C      0.728373    1.410034   -0.840797
C      1.491805    0.325116   -0.238896
C      0.844082   -0.535438    0.668112
C     -0.596697   -0.306211    0.979482
C     -1.317491    0.764730    0.374098
C     -2.671925    0.962805    0.680707
C     -3.331532    0.121307    1.576606
C     -2.648767   -0.924841    2.175270
C     -1.300922   -1.133966    1.879731
C      1.616367   -1.572207    1.228685
C      2.967329   -1.742644    0.901300
C      3.583314   -0.880345    0.003759
C      2.846678    0.152363   -0.565787
N      1.183524    2.295815   -1.701844
H      1.328346    4.269397   -3.322279
H      0.088546    5.187795   -2.452106
H     -0.371879    4.118305   -3.795759
H     -2.633689    3.738785   -0.353438
H     -2.351599    4.214869   -2.017904
H     -3.099026    2.657993   -1.711055
H     -3.265799    1.755852    0.253043
H     -4.381766    0.286450    1.805157
H     -3.160469   -1.582152    2.873859
H     -0.817998   -1.968671    2.378598
H      1.192543   -2.278064    1.935830
H      3.535595   -2.552973    1.351556
H      4.631103   -1.008729   -0.253188
H      3.324640    0.831202   -1.269967
