38

C      4.659076    1.797153    3.037293
O      5.295989    1.272438    1.877421
C      4.664610    1.707488    0.669512
C      3.416490    0.912738    0.365552
C      3.475881   -0.461778    0.263577
C      2.290270   -1.106081   -0.006122
S      2.292845   -2.889443   -0.147472
C      0.528065   -3.234434   -0.215889
C     -0.236414   -3.357438    0.961588
Cl     0.453599   -3.211133    2.546057
C     -1.613918   -3.607433    0.901593
C     -2.251914   -3.742483   -0.327883
C     -1.512751   -3.629443   -1.501619
C     -0.135061   -3.378608   -1.450529
Cl     0.683301   -3.254661   -2.974370
N      1.125962   -0.454094   -0.173145
C      1.152419    0.883435   -0.056600
C     -0.120354    1.613649   -0.228128
C     -1.324171    0.937306   -0.511085
C     -2.530846    1.625525   -0.674182
C     -2.562884    3.011555   -0.558428
C     -1.391194    3.708279   -0.279327
C     -0.186253    3.016247   -0.116599
N      2.263083    1.597526    0.209447
H      5.201232    1.437321    3.916048
H      3.623106    1.452398    3.106361
H      4.694091    2.890764    3.032142
H      5.377569    1.553857   -0.148352
H      4.452308    2.782683    0.713500
H      4.407058   -0.996922    0.402146
H     -2.195077   -3.696155    1.816997
H     -3.321068   -3.935184   -0.371434
H     -2.015888   -3.735313   -2.460772
H     -1.328740   -0.147275   -0.608402
H     -3.442417    1.075535   -0.892512
H     -3.499252    3.548270   -0.685686
H     -1.409801    4.791236   -0.187353
H      0.715280    3.587277    0.100526
