35

C      0.824531    0.372413    1.294742
C      1.722929    0.386746    0.027880
C      0.999279    0.770141   -1.057784
C     -0.317488    1.014895   -0.617893
S     -1.709597    1.505848   -1.390954
C     -2.613249    1.449137    0.109156
C     -1.795385    1.044481    1.183099
C     -2.367278    0.947367    2.458858
N     -3.672675    1.232032    2.671233
C     -4.441151    1.616820    1.637677
C     -5.782419    1.915912    1.820164
C     -6.584061    2.316215    0.747548
C     -6.008613    2.408739   -0.508588
N     -4.713037    2.132590   -0.752908
C     -3.971954    1.746986    0.321522
C     -0.477991    0.803566    0.721762
C      3.109403    0.052840   -0.029010
S      4.067841    0.092984   -1.501656
C      5.530093   -0.416813   -0.727330
C      5.260156   -0.596520    0.578462
N      6.136093   -0.996846    1.544448
C      5.313154   -1.004754    2.668102
C      3.994453   -0.616402    2.347890
C      3.959874   -0.343994    0.952344
H      0.762730   -0.634427    1.718785
H      1.189882    1.084312    2.041121
H      1.327638    0.880303   -2.080721
H     -1.799851    0.642483    3.332211
H     -6.211282    1.835857    2.815484
H     -7.632980    2.549282    0.894647
H     -6.590657    2.715481   -1.373117
H      6.459003   -0.546226   -1.264245
H      7.118277   -1.221722    1.442554
H      5.734474   -1.290209    3.623711
H      3.181166   -0.548390    3.057299
