48

C     -1.992887   -6.296128    3.917000
S     -2.748699   -6.420141    2.384563
C     -1.938715   -5.020320    1.801201
C     -1.201724   -4.387536    2.777005
C     -1.157046   -5.207344    3.968552
C     -0.343400   -4.980396    5.068683
C      0.521641   -3.896862    4.837580
C      0.512882   -3.071178    3.656832
C      1.491619   -2.095264    3.515819
N      1.639624   -1.270787    2.455678
C      0.700620   -1.312305    1.479976
C      0.939746   -0.375411    0.421407
S      2.285591    0.699442    0.177931
C      1.641482    1.331467   -1.281298
C      0.421967    0.769262   -1.600758
C      0.059592   -0.179881   -0.627367
C     -1.163757   -0.916146   -0.582628
C     -2.193765   -0.757953   -1.465310
S     -3.525435   -1.702813   -0.935461
C     -2.661727   -2.257280    0.452743
C     -1.343354   -1.848229    0.474237
C     -0.416561   -2.189757    1.513307
C     -0.426262   -3.191791    2.578488
C      2.389708    2.358436   -2.014214
C      3.448804    1.937378   -2.835723
C      4.178898    2.858863   -3.578353
C      3.856071    4.211771   -3.511822
C      2.803560    4.665005   -2.701485
C      2.495084    6.034699   -2.648229
C      1.457183    6.507489   -1.846648
C      0.714120    5.616444   -1.084407
C      1.007492    4.251701   -1.126631
C      2.051683    3.738993   -1.934377
H     -2.174171   -7.050481    4.670582
H     -2.055036   -4.772597    0.757327
H     -0.300155   -5.589151    5.961925
H      1.261449   -3.686633    5.613724
H      2.254662   -1.953421    4.279256
H     -0.146213    1.052310   -2.477709
H     -2.276767   -0.134298   -2.344168
H     -3.211325   -2.842584    1.174328
H      3.706718    0.881966   -2.898225
H      4.998161    2.524033   -4.209029
H      4.439081    4.917014   -4.100901
H      3.068027    6.750274   -3.234465
H      1.234072    7.570572   -1.815740
H     -0.092148    5.978470   -0.451886
H      0.410288    3.585309   -0.507626
