24

C     -2.436705   -1.931574    2.835248
O     -1.735612   -2.544953    1.760347
C     -0.957483   -1.729981    0.986747
C     -0.789566   -0.357333    1.149004
C      0.043303    0.355599    0.276904
C      0.723450   -0.284720   -0.769856
C      1.581904    0.507753   -1.651778
N      1.757780    1.817192   -1.622062
C      2.647915    2.051004   -2.619973
N      3.031851    3.301967   -2.854726
N      3.027042    0.980133   -3.305295
N      2.358318    0.010093   -2.664677
C      0.546222   -1.665381   -0.924657
C     -0.286760   -2.376856   -0.052575
H     -3.150798   -1.187498    2.467133
H     -1.742854   -1.490808    3.558710
H     -3.004997   -2.711233    3.351590
H     -1.287526    0.193980    1.939533
H      0.161642    1.429241    0.421681
H      3.394395    3.487084   -3.780120
H      2.420750    4.023893   -2.497300
H      2.475067   -0.948609   -2.965729
H      1.038867   -2.220950   -1.716472
H     -0.415214   -3.448960   -0.185316
