42

Si     1.396337   -0.151789   -0.220836
C      1.278789    1.708210   -0.532335
C      0.018131    2.172355   -0.414040
C     -0.948601    1.134152   -0.058105
C     -0.481590   -0.210051    0.113208
C     -1.306867   -1.341518    0.465597
C     -0.795165   -2.649056    0.622617
C     -1.603652   -3.751435    0.967594
C     -1.059175   -5.038476    1.115306
C     -1.867100   -6.124267    1.457146
C     -3.231031   -5.938833    1.656129
C     -3.787941   -4.667563    1.513326
C     -2.986316   -3.566111    1.169662
C     -3.532363   -2.285302    1.022816
C     -2.716194   -1.179942    0.675959
C     -3.176936    0.164934    0.501485
C     -4.485291    0.568435    0.647669
S     -4.677584    2.252098    0.362615
C     -3.005107    2.460718    0.038416
C     -2.318434    1.275183    0.147005
C      2.453463    2.489183   -0.890419
C      3.621708    2.587543   -0.122808
N      4.759949    3.301272   -0.409389
C      4.849248    4.040374   -1.553435
C      3.745355    4.047137   -2.428489
N      3.652757    4.710675   -3.592323
S      2.152759    4.361557   -4.210831
N      1.557660    3.357893   -3.033512
C      2.510831    3.249137   -2.088742
H      2.199297   -0.448665    0.993042
H      1.786061   -0.912345   -1.434433
H     -0.274257    3.202047   -0.569617
H      0.266271   -2.835685    0.474988
H      0.004911   -5.206664    0.964141
H     -1.430127   -7.113337    1.567307
H     -3.862765   -6.782268    1.922170
H     -4.856713   -4.542395    1.672684
H     -4.598379   -2.146079    1.178596
H     -5.357488   -0.014292    0.905192
H     -2.634726    3.444406   -0.212901
H      3.686654    2.063914    0.831964
H      5.765443    4.586844   -1.733312
