44

C      4.688337    0.991919   -2.881402
C      5.645366    0.838696   -1.739824
C      4.956332    0.561664   -0.625018
C      5.477053    0.171206    0.655696
C      4.618596   -0.280554    1.585834
C      3.154372   -0.300458    1.342847
C      2.309704   -0.852367    2.287066
N      0.961353   -0.880265    2.187708
C      0.344176   -0.250376    1.172516
C     -1.104072   -0.266438    1.170714
C     -1.831536   -0.980450    2.125376
N     -3.189222   -1.059440    2.207782
C     -3.923097   -0.389798    1.293353
C     -3.342483    0.373951    0.295991
C     -1.931319    0.426913    0.241909
C     -1.142304    1.170003   -0.649453
C     -1.576767    2.054910   -1.601961
O     -0.502989    2.669932   -2.172869
C      0.617440    2.162631   -1.579704
C      0.283506    1.174252   -0.686194
C      1.136337    0.412529    0.166008
C      2.560733    0.260980    0.189257
C      3.518651    0.581825   -0.896929
C      3.359987    0.746860   -2.221705
C     -5.369564   -0.534477    1.462551
C     -6.088855   -1.035844    2.538551
C     -7.467444   -0.974518    2.228651
C     -7.572046   -0.448783    0.963503
N     -6.304630   -0.195196    0.506545
H      4.882362    0.244872   -3.656772
H      4.737512    1.995298   -3.313919
H      6.719852    0.859347   -1.838083
H      6.546672    0.191225    0.831447
H      4.983834   -0.619223    2.550224
H      2.698053   -1.321753    3.187679
H     -1.321240   -1.550889    2.900560
H     -3.940851    0.929805   -0.412842
H     -2.541405    2.391423   -1.954212
H      1.537141    2.634478   -1.892944
H      2.441254    0.677450   -2.781362
H     -5.647374   -1.405481    3.456351
H     -8.289548   -1.286412    2.859490
H     -8.435857   -0.240692    0.346614
H     -6.093784    0.171624   -0.410291
