41

C     -1.320216    2.773472    1.739746
C     -0.929108    1.370675    2.112243
C     -0.880185    0.603612    1.010303
C     -0.551563   -0.824604    0.881692
C     -0.575838   -1.379563   -0.357986
C     -0.924413   -0.558666   -1.479098
O     -0.992947   -0.980502   -2.796304
C     -1.352442    0.102618   -3.523245
C     -1.514919    1.208463   -2.708299
Si    -2.013246    2.682569   -3.769495
C     -1.943555    1.571506   -5.308026
C     -2.127194    1.585592   -6.684251
C     -1.865457    0.285067   -7.100364
N     -1.532365   -0.493937   -6.001725
C     -1.582491    0.303198   -4.907988
C     -1.247992    0.808357   -1.416106
C     -1.233452    1.433525   -0.147413
C     -1.488743    2.686099    0.248748
C     -0.171231   -1.667220    1.973320
S     -1.279252   -2.865895    2.585949
C     -0.186724   -3.405155    3.806867
C      0.962823   -2.682727    3.736301
Si     2.595772   -2.634264    4.670670
C      3.149548   -1.218211    3.509960
C      2.189224   -0.915199    2.608849
C      0.990823   -1.697706    2.712998
H     -0.532527    3.484576    2.005439
H     -2.257272    3.062000    2.224931
H     -0.726227    1.045655    3.121830
H     -0.333826   -2.420726   -0.539820
H     -3.382443    3.178872   -3.472401
H     -0.989788    3.760515   -3.784918
H     -2.411991    2.410203   -7.324665
H     -1.886752   -0.159963   -8.086202
H     -1.295587   -1.477727   -6.012657
H     -1.774737    3.514370   -0.378695
H     -0.465494   -4.202669    4.482074
H      2.476951   -2.156335    6.070752
H      3.439691   -3.839953    4.479868
H      4.121573   -0.763913    3.613929
H      2.304747   -0.141873    1.857438
