39

C     -0.792214   -4.418752   -0.156225
C     -1.525380   -5.413927    0.718685
C     -1.934996   -4.889632    1.884944
C     -1.512309   -3.512423    1.872820
C     -0.832220   -3.171402    0.696635
C     -0.294870   -1.877366    0.418593
C      0.412832   -1.670010   -0.755773
N      0.977690   -0.505662   -1.142363
C      0.801387    0.581708   -0.397678
C      1.393433    1.732333   -0.927973
C      1.321855    3.032668   -0.385449
C      1.982966    4.183901   -0.984337
N      2.543170    5.085953   -0.176121
C      3.149935    6.092021   -0.799245
N      3.257565    6.246139   -2.116066
C      2.684125    5.273803   -2.818849
N      2.043701    4.218665   -2.320513
C      0.500156    3.127801    0.760365
N      0.170639    4.255207    1.415563
S     -0.861965    3.841521    2.629365
N     -0.949625    2.213508    2.392549
C     -0.147022    1.888901    1.365303
C      0.062233    0.557885    0.819116
C     -0.428267   -0.741382    1.296924
C     -1.053034   -1.158960    2.546195
C     -1.112737   -0.422986    3.706850
S     -1.937844   -1.229887    4.983147
C     -2.130084   -2.649434    4.048579
C     -1.582955   -2.493267    2.799278
H     -1.323880   -4.270677   -1.100661
H      0.236172   -4.747651   -0.331970
H     -1.690778   -6.440477    0.421458
H     -2.469719   -5.384443    2.678122
H      0.579644   -2.476163   -1.467153
H      1.964071    1.607092   -1.853503
H      3.601204    6.855404   -0.174672
H      2.745364    5.346208   -3.899462
H     -0.710016    0.547452    3.937009
H     -2.603712   -3.519275    4.481872
