38

C     -6.044934   -0.906227   -2.355658
C     -4.858654   -0.905631   -1.591212
C     -4.093400    0.221997   -1.995779
C     -2.919587    0.853035   -1.741428
S     -2.873673    2.237966   -2.814790
C     -4.412099    1.899499   -3.537205
C     -4.897325    0.783717   -2.961507
N     -6.084254    0.170437   -3.238469
C     -1.836356    0.544283   -0.797047
C     -0.681442    1.314660   -0.665885
C      0.289728    0.919412    0.275106
C      1.529527    1.553924    0.569204
C      2.057342    2.691741    0.003380
O      3.281692    2.981727    0.561909
C      3.553224    2.018339    1.504237
C      2.502960    1.160802    1.509957
C      2.201608    0.003907    2.236951
C      2.922943   -0.641899    3.216374
N      4.059576   -0.672483    3.973629
C      3.978109   -1.776706    4.800460
C      2.792330   -2.459443    4.579607
C      2.159299   -1.709528    3.574222
O      0.984735   -1.765972    2.861802
C      1.029238   -0.672853    2.019969
C      0.065942   -0.249654    1.061832
C     -1.117349   -0.946982    0.854181
N     -2.056099   -0.572748   -0.049148
H     -6.874313   -1.601424   -2.336831
H     -4.592868   -1.636296   -0.837962
H     -4.843678    2.519946   -4.309619
H     -6.788233    0.445858   -3.911756
H     -0.520678    2.200421   -1.267676
H      1.730971    3.385064   -0.759204
H      4.491585    2.119977    2.028318
H      4.807639    0.007404    3.914532
H      4.786625   -1.987135    5.489381
H      2.445506   -3.356842    5.070667
H     -1.354806   -1.846004    1.416989
