41

C      5.681883    2.735545   -4.537454
C      5.392724    1.382318   -4.642890
C      4.330350    0.834889   -3.915850
C      3.520381    1.622221   -3.058037
C      3.838504    2.993480   -2.971525
C      4.908445    3.539388   -3.705214
C      3.059495    3.785919   -2.137524
N      2.019309    3.340488   -1.402362
C      1.708169    2.040445   -1.477465
C      0.634143    1.595859   -0.715757
C      0.206960    0.258805   -0.704538
C     -0.934089   -0.170125    0.120541
C     -0.994458    0.131500    1.488166
C     -2.079364   -0.278374    2.277018
C     -3.151588   -1.002453    1.729051
C     -4.306969   -1.439443    2.538039
C     -4.766822   -0.755696    3.664852
N     -5.827101   -1.159932    4.412143
C     -6.430175   -2.288735    3.985470
C     -5.998091   -2.976966    2.867132
N     -4.941138   -2.571188    2.125303
C     -3.078971   -1.308263    0.359018
C     -1.995641   -0.899581   -0.430255
C      0.906013   -0.647970   -1.502633
C      1.989531   -0.226245   -2.278181
C      2.417098    1.123378   -2.285941
H      6.506296    3.164703   -5.100703
H      5.991115    0.746189   -5.290431
H      4.145730   -0.229366   -4.033795
H      5.144489    4.599048   -3.630615
H      3.254804    4.850053   -2.028760
H      0.103135    2.332690   -0.114515
H     -0.181574    0.679490    1.962225
H     -2.053259   -0.034820    3.336938
H     -4.303083    0.163510    4.005554
H     -7.278124   -2.627757    4.569105
H     -6.492468   -3.881707    2.532643
H     -3.883078   -1.872368   -0.112694
H     -1.999061   -1.151005   -1.489090
H      0.622412   -1.698742   -1.519783
H      2.497110   -0.977486   -2.876286
