30

C     -2.737869    6.227358   -1.099471
C     -1.604139    6.787121   -0.557374
S     -0.457873    5.603247   -0.105423
C     -1.464968    4.317989   -0.640488
C     -2.659243    4.804779   -1.142837
C     -1.030032    2.921373   -0.505653
C      0.258232    2.512815   -0.872865
C      0.648593    1.173447   -0.748728
C     -0.238646    0.205285   -0.260228
C     -1.527232    0.615878    0.109199
C     -1.918417    1.955074   -0.015841
C      0.188006   -1.197296   -0.137091
S     -0.854297   -2.462755   -0.694244
C      0.254174   -3.697020   -0.267619
C      1.396481   -3.173152    0.276646
N      2.435660   -3.947534    0.696069
C      3.438849   -3.174638    1.194845
C      3.418672   -1.776853    1.269555
N      2.394030   -0.983336    0.854609
C      1.367089   -1.730470    0.349600
H     -3.582908    6.808235   -1.447838
H     -1.391596    7.835839   -0.401947
H     -3.442396    4.167185   -1.535264
H      0.975135    3.228658   -1.268778
H      1.659126    0.894990   -1.041940
H     -2.242674   -0.097325    0.512483
H     -2.923400    2.237134    0.290544
H      0.019205   -4.737621   -0.437126
H      4.303993   -3.726309    1.552195
H      4.267924   -1.241876    1.685727
