40

Si     0.526441   -0.036538    3.622261
C     -0.320343    1.406751    2.822296
C     -0.320627    1.307413    1.474952
C     -1.058583    2.209245    0.588560
C     -1.166691    1.856518   -0.708713
C     -0.485075    0.677892   -1.294772
C     -0.695589    0.432692   -2.658253
C     -0.002336   -0.580423   -3.303944
C      0.966723   -1.311015   -2.600945
C      1.718086   -2.280855   -3.297501
O      1.569482   -2.638262   -4.609904
C      2.491448   -3.599841   -4.870779
C      3.242116   -3.866527   -3.750257
C      2.748566   -3.015651   -2.726744
C      3.075330   -2.769343   -1.388430
C      2.328207   -1.813393   -0.672737
C      1.235350   -1.090523   -1.224121
C      0.413363   -0.133908   -0.539037
C      0.386035    0.109128    0.938849
C      0.807894   -0.729616    1.911120
C     -1.700650    3.423094    0.974128
C     -2.978573    3.929212    0.826124
C     -3.003775    5.218169    1.412844
C     -1.740263    5.473011    1.895404
N     -0.955812    4.382872    1.620044
H      1.796410    0.345233    4.285962
H     -0.391876   -0.874640    4.429219
H     -0.822598    2.150066    3.421407
H     -1.721264    2.484120   -1.402099
H     -1.396841    1.034883   -3.231391
H     -0.182408   -0.764041   -4.360830
H      2.490551   -3.984363   -5.881146
H      4.049288   -4.581238   -3.680039
H      3.898325   -3.290659   -0.908523
H      2.665794   -1.608016    0.338323
H      1.223523   -1.717073    1.819686
H     -3.807013    3.418576    0.352259
H     -3.852098    5.887407    1.473499
H     -1.330618    6.333871    2.406155
H      0.025105    4.291905    1.850487
