31

C      1.087529   -1.366212   -2.584688
C      0.940217   -0.372686   -3.531460
O      0.568172    0.816541   -2.959064
C      0.479050    0.566224   -1.620267
C      0.781876   -0.724998   -1.360375
S      0.674249   -1.060891    0.331952
C      0.210358    0.588256    0.672061
C      0.148707    1.349064   -0.498846
N     -0.181305    2.659711   -0.565386
C     -0.465937    3.237287    0.618572
C     -0.448375    2.614690    1.863358
C     -0.770633    3.340084    3.043320
C     -0.772672    2.774880    4.329985
C     -0.429588    1.406764    4.411586
N     -0.375244    0.691174    5.544620
S      0.070502   -0.844842    5.108578
N      0.213453   -0.669308    3.468481
C     -0.081859    0.608782    3.172659
C     -0.095479    1.232985    1.889936
C      1.106179   -0.370704   -4.982317
N      1.468931   -1.533145   -5.533853
C      1.606857   -1.480083   -6.855204
N      1.418671   -0.408202   -7.621872
C      1.060147    0.684259   -6.950010
N      0.887038    0.771240   -5.636456
H      1.372154   -2.393556   -2.758737
H     -0.727203    4.291112    0.529626
H     -1.033622    4.396959    2.962572
H     -1.022217    3.349758    5.214114
H      1.900407   -2.396204   -7.356702
H      0.894053    1.586649   -7.528629
