43

C      5.491994    0.716976   -4.314091
C      5.574963   -0.306866   -3.179166
C      4.400115   -0.403224   -2.515884
C      3.455483    0.485748   -3.095576
C      4.080309    1.171538   -4.166282
C      3.244702    2.064511   -4.776373
S      1.692757    2.046735   -4.019682
C      2.151039    0.832224   -2.866436
C      1.233870    0.310797   -1.885081
C      1.086222   -1.012218   -1.520967
C      0.108763   -1.133442   -0.518790
C     -0.291650   -2.367051    0.081370
C      0.152476   -3.632623   -0.164397
N     -0.573572   -4.432083    0.692827
C     -1.441557   -3.659575    1.445158
C     -1.281463   -2.341321    1.073925
C     -1.955343   -1.227162    1.573854
C     -2.949133   -1.238243    2.576622
O     -3.467896   -2.304820    3.271310
C     -4.405827   -1.810619    4.136078
C     -4.519926   -0.438531    4.029740
C     -3.594639   -0.114111    3.045554
C     -3.219269    1.116490    2.468861
C     -3.672513    2.369723    2.722922
O     -2.987457    3.218300    1.895699
C     -2.120707    2.458273    1.144963
C     -2.224116    1.120507    1.465902
C     -1.525281    0.013720    0.940885
C     -0.516131    0.029943   -0.077478
S      0.181595    1.329659   -0.989093
H      6.201500    1.533444   -4.153950
H      5.667308    0.239872   -5.282220
H      6.469191   -0.865374   -2.945718
H      4.206966   -1.044837   -1.667728
H      3.441367    2.723726   -5.610113
H      1.646001   -1.824919   -1.965154
H      0.886159   -4.050881   -0.838822
H     -0.488442   -5.437843    0.764280
H     -2.087892   -4.134880    2.170860
H     -4.896717   -2.553150    4.750032
H     -5.182953    0.199772    4.594363
H     -4.398425    2.824633    3.380489
H     -1.528338    3.038444    0.453504
