38

Cl     0.497482    4.868516    6.663042
C      0.236353    3.831127    5.315909
C     -1.003424    3.817191    4.682289
C     -1.214345    2.972525    3.588326
C     -0.185548    2.146584    3.114047
C     -0.462743    1.255895    1.979368
C      0.425996    0.950105    1.019008
N      0.286074    0.129723   -0.109013
C      1.469491   -0.426759   -0.716771
C      1.562772   -0.576278   -2.112574
C      2.707482   -1.114076   -2.708123
C      3.781377   -1.515638   -1.918589
C      3.711743   -1.380809   -0.534693
C      2.567171   -0.841229    0.060139
C     -1.017462   -0.118892   -0.663137
C     -1.405149   -1.422682   -1.018131
C     -2.666701   -1.673924   -1.563436
C     -3.559649   -0.624358   -1.767093
C     -3.192583    0.675952   -1.427888
C     -1.931308    0.926660   -0.881163
C      1.051442    2.160910    3.773641
C      1.264052    3.004791    4.868349
H     -1.809057    4.456633    5.032621
H     -2.188896    2.971361    3.104091
H     -1.465343    0.837323    1.944778
H      1.426030    1.376483    1.071868
H      0.745330   -0.254161   -2.753598
H      2.757915   -1.214508   -3.789141
H      4.670886   -1.934826   -2.381490
H      4.544950   -1.700859    0.085450
H      2.529553   -0.773694    1.144329
H     -0.724155   -2.254764   -0.854699
H     -2.949955   -2.689677   -1.826286
H     -4.540565   -0.819638   -2.192600
H     -3.884201    1.497720   -1.593449
H     -1.653556    1.950652   -0.643984
H      1.860147    1.508637    3.452810
H      2.229259    3.006516    5.367517
