48

C      0.716764   -2.018447    3.961452
C     -0.390986   -1.318680    4.694234
C     -0.921179   -0.365345    3.911337
C     -2.008195    0.574520    4.173069
C     -2.318893    1.414459    3.152392
C     -1.608233    1.421805    1.867948
C     -0.584858    0.581839    1.578961
C      0.059491    0.648608    0.268108
C      1.075962    1.521884    0.063756
C      1.784285    1.648408   -1.214501
C      1.493133    0.888772   -2.298118
C      2.230546    1.106526   -3.544037
C      1.643341    1.545266   -4.735844
N      2.260140    1.763998   -5.944124
C      3.601502    1.553464   -6.088284
C      4.330462    1.107721   -4.967294
N      5.647463    0.848611   -4.922107
S      5.973119    0.352173   -3.372053
N      4.465010    0.452428   -2.690936
C      3.625087    0.877024   -3.653658
C      0.413494   -0.076456   -2.140567
C     -0.090289   -0.969087   -3.007392
C     -1.196819   -1.743184   -2.346694
C     -1.234251   -1.148310   -0.969602
C     -0.297352   -0.193091   -0.867949
C     -0.216539   -0.358070    2.629949
C      0.733676   -1.305715    2.640485
C     -2.767995    0.622470    5.392665
N     -3.248781   -0.421980    6.048196
C     -3.904166   -0.028235    7.196252
C     -3.915482    1.324777    7.438399
S     -3.074570    2.140204    6.193301
H      1.670386   -1.901203    4.484369
H      0.494010   -3.081656    3.832659
H     -0.707966   -1.564590    5.696951
H     -3.135829    2.127770    3.228712
H     -1.954012    2.146326    1.134271
H      1.415739    2.174712    0.864345
H      2.570485    2.399303   -1.242846
H      0.572813    1.754290   -4.758912
H      4.041541    1.739178   -7.059017
H      0.234830   -1.136559   -4.022507
H     -0.960866   -2.810696   -2.308103
H     -2.147175   -1.593178   -2.867269
H     -1.909435   -1.461739   -0.187552
H      1.410994   -1.535909    1.831885
H     -4.358915   -0.780327    7.829387
H     -4.359726    1.856789    8.266930
