42

C      6.410570   -2.045044   -0.807340
C      6.200266   -0.892899   -0.076223
N      4.974803   -0.423862    0.237864
C      3.907850   -1.130612   -0.192796
C      2.625283   -0.692927    0.104444
C      1.487620   -1.392483   -0.320899
C      0.128542   -0.929974   -0.007743
C     -0.266569    0.388362   -0.270153
C     -1.571254    0.834005    0.009158
C     -2.514768   -0.029885    0.595135
C     -2.116884   -1.349802    0.877062
C     -0.818295   -1.790641    0.563294
C     -3.090055   -2.321513    1.495353
C     -4.181716   -1.589379    2.262481
C     -4.807036   -0.526745    1.372645
N     -3.799395    0.406844    0.886212
C     -4.157479    1.810154    0.724500
C     -3.441276    2.420299   -0.470009
C     -1.937069    2.263877   -0.299353
C      1.721718   -2.548921   -1.058794
N      2.948774   -3.025124   -1.375979
C      4.012105   -2.319160   -0.945384
C      5.293935   -2.755998   -1.240315
H      7.413799   -2.385319   -1.036917
H      7.033046   -0.297791    0.287937
H      2.517899    0.214244    0.695220
H      0.441146    1.083677   -0.719170
H     -0.543968   -2.818810    0.794192
H     -2.567284   -2.997491    2.182177
H     -3.531838   -2.929946    0.696890
H     -4.944422   -2.299521    2.600276
H     -3.755857   -1.117738    3.157754
H     -5.310118   -0.992587    0.516456
H     -5.574944    0.006034    1.946152
H     -5.239206    1.912339    0.576644
H     -3.904792    2.355553    1.642035
H     -3.765894    1.918735   -1.391081
H     -3.700036    3.480275   -0.568062
H     -1.440205    2.592971   -1.219567
H     -1.581549    2.900264    0.520132
H      0.897477   -3.146812   -1.441663
H      5.421765   -3.667324   -1.818201
