36

C     -0.786821   -0.303689   -3.537101
N      0.080343   -0.096252   -2.381533
C      1.183700    0.788874   -2.496243
C      1.336151    1.681219   -3.574435
C      2.426637    2.548838   -3.652628
C      3.380276    2.552810   -2.645448
C      3.246145    1.688919   -1.557542
C      2.164826    0.792495   -1.460906
N      1.994375   -0.089183   -0.361685
C      3.109623   -0.300863    0.555895
C      0.760362   -0.748958   -0.125434
C      0.455504   -1.374648    1.100983
C     -0.774309   -2.011380    1.322655
C     -1.072784   -2.650009    2.590511
C     -2.292245   -2.827448    3.282219
N     -2.136383   -3.495416    4.428193
O     -0.781816   -3.776869    4.501753
C     -0.158508   -3.274610    3.406125
C     -1.725948   -2.002953    0.303758
C     -1.453601   -1.376581   -0.915922
C     -0.219437   -0.750423   -1.160241
H     -0.238363   -0.242268   -4.483907
H     -1.596435    0.433835   -3.548536
H     -1.223921   -1.308486   -3.553080
H      0.596357    1.739892   -4.365688
H      2.519206    3.230066   -4.494227
H      4.222891    3.237283   -2.694660
H      3.995175    1.753809   -0.775460
H      3.105198   -1.307819    0.988496
H      4.080560   -0.237106    0.051640
H      3.084118    0.432857    1.368618
H      1.169174   -1.332003    1.917115
H     -3.283866   -2.496634    3.007742
H      0.905395   -3.453452    3.360289
H     -2.693792   -2.480834    0.435762
H     -2.243116   -1.372854   -1.660424
