47

C     -6.676351   -1.505450    0.356189
C     -6.065979   -0.102190    0.306417
C     -4.759160   -0.145780   -0.039970
C     -4.371415   -1.495958   -0.247250
C     -5.493640   -2.330079   -0.022125
C     -5.208307   -3.654367   -0.207053
S     -3.552008   -3.854376   -0.658365
C     -3.226878   -2.152276   -0.605962
C     -1.922045   -1.625071   -0.891999
S     -1.086598   -0.662658    0.281700
C      0.313542   -0.446849   -0.719504
C      0.096944   -1.093850   -1.902627
Si     1.073676   -1.338292   -3.496417
C     -0.399162   -2.352511   -4.172271
C     -1.399549   -2.433865   -3.267775
C     -1.152608   -1.762850   -2.023016
C      1.426668    0.326033   -0.268441
C      2.266479   -0.247804    0.623645
C      3.460775    0.418574    1.140150
C      3.851967    1.656269    0.749566
C      5.040054    2.217149    1.332229
N      5.127639    3.376300    1.963403
C      6.422718    3.616915    2.373118
C      7.340432    2.648832    2.040275
S      6.565009    1.389124    1.182107
C      2.986905    2.348359   -0.216502
C      3.189029    3.585773   -0.715508
Si     1.833444    4.079123   -1.895809
C      1.041891    2.415446   -1.598045
C      1.762140    1.677188   -0.727976
H     -7.030890   -1.739930    1.363649
H     -7.488807   -1.602053   -0.369241
H     -6.621684    0.797732    0.523711
H     -4.103586    0.707394   -0.145448
H     -5.857304   -4.512805   -0.106537
H      2.276949   -2.195385   -3.351571
H      1.258999   -0.100115   -4.294514
H     -0.372023   -2.776461   -5.162995
H     -2.326267   -2.961249   -3.463526
H      2.084951   -1.253237    0.997768
H      4.023672   -0.147464    1.878889
H      6.644381    4.527797    2.915683
H      8.399643    2.624598    2.250514
H      3.999855    4.258525   -0.481359
H      1.005952    5.199846   -1.388816
H      2.321706    4.223987   -3.288615
H      0.118457    2.141375   -2.083465
