48

C      6.576889    0.526091   -6.122201
C      5.475093    0.715986   -5.119991
C      5.397396    1.911498   -4.371826
C      4.399429    2.111391   -3.404043
C      3.473619    1.105310   -3.171020
C      3.585267   -0.078422   -3.922350
C      4.554838   -0.308788   -4.881933
C      2.358446    1.084025   -2.221618
C      1.954169    2.065503   -1.331043
C      0.842804    1.822555   -0.505014
C      0.118774    0.604701   -0.550075
C     -1.039063    0.385997    0.333011
C     -2.109184    1.283426    0.348480
C     -3.215050    1.083008    1.184638
C     -1.092508   -0.733747    1.180104
C     -2.207430   -0.931815    2.022856
S     -2.444295   -2.228002    3.120806
C     -3.279466   -0.041787    2.044461
C     -4.306279   -0.452476    2.984659
C     -3.969295   -1.637299    3.637941
C     -4.820188   -2.225296    4.597225
C     -6.045244   -1.615953    4.900704
C     -6.392723   -0.424422    4.270328
C     -5.543977    0.154243    3.320129
C     -6.945010   -2.214570    5.942433
C      0.530084   -0.386401   -1.451267
C      1.626940   -0.115528   -2.251143
S      2.317562   -1.203211   -3.449101
O      2.924274   -2.320988   -2.759659
O      1.382903   -1.334302   -4.545417
H      6.267107   -0.157927   -6.919296
H      7.463669    0.116090   -5.629291
H      6.840844    1.477756   -6.595210
H      6.126022    2.702940   -4.544342
H      4.370835    3.046376   -2.852528
H      4.590413   -1.249676   -5.422363
H      2.478161    3.013672   -1.255606
H      0.542964    2.598162    0.199910
H     -2.104203    2.153445   -0.306082
H     -4.031957    1.800122    1.166451
H     -0.272327   -1.448202    1.201361
H     -4.523359   -3.146481    5.092660
H     -7.331947    0.070381    4.509208
H     -5.841724    1.081836    2.837872
H     -6.687606   -1.820038    6.930179
H     -7.994681   -1.984363    5.731524
H     -6.849833   -3.305390    5.960507
H      0.007600   -1.335049   -1.535432
