32

C      1.550287    5.808648   -0.234803
O      1.338340    5.000528   -1.385439
C      1.122164    3.666833   -1.173444
C      0.919567    2.917305   -2.335765
C      0.686815    1.540735   -2.268992
C      1.090534    3.027181    0.066663
C      0.858045    1.648311    0.143824
C      0.655383    0.900556   -1.024382
N      0.419730   -0.497304   -0.945567
N      0.381751   -1.154688    0.242504
C      0.140114   -2.426889   -0.115041
C      0.043534   -2.470297   -1.522993
N      0.218609   -1.258908   -2.051849
C      0.015272   -3.510996    0.861219
C      0.147383   -3.248572    2.234339
C      0.030418   -4.274308    3.176265
C     -0.220541   -5.578264    2.758276
C     -0.354508   -5.857012    1.400276
C     -0.237573   -4.830852    0.456798
H      0.671992    5.802637    0.419137
H      2.449493    5.496636    0.306633
H      1.706008    6.837598   -0.573119
H      0.943253    3.411106   -3.304588
H      0.532943    0.986532   -3.192664
H      1.242537    3.569160    0.994203
H      0.838138    1.172760    1.122806
H     -0.142461   -3.310380   -2.176728
H      0.343766   -2.236353    2.583590
H      0.135815   -4.051358    4.234929
H     -0.311606   -6.376466    3.490543
H     -0.550528   -6.875327    1.073351
H     -0.348486   -5.089087   -0.592643
