46

C     -5.582566    3.342174    4.220294
C     -5.660666    3.421663    2.823242
C     -4.670203    2.799402    2.065399
C     -3.630417    2.109533    2.699864
C     -2.540922    1.454940    1.937771
C     -1.672432    0.536655    2.528703
C     -0.643436   -0.031356    1.775044
C     -0.480410    0.332707    0.441694
C      0.597502   -0.210515   -0.381083
C      0.381859   -1.313601   -1.212982
C      1.415836   -1.832766   -2.011745
C      2.691795   -1.235757   -2.012017
C      2.897472   -0.107950   -1.194736
C      1.865906    0.378577   -0.373740
C      4.233717    0.594039   -1.191280
C      4.970481    0.346259   -2.501618
C      5.046517   -1.149988   -2.762898
N      3.718136   -1.745761   -2.797972
C      3.432017   -2.758945   -3.804860
C      2.397809   -3.743744   -3.295198
C      1.123353   -2.999098   -2.918335
C     -1.403058    1.243499   -0.080542
N     -2.417682    1.797992    0.626109
N     -3.553262    2.033619    4.066171
C     -4.513211    2.659370    4.782869
H     -6.320052    3.829858    4.845795
H     -6.460602    3.969193    2.341718
H     -4.706111    2.867622    0.987278
H     -1.794406    0.257061    3.570032
H      0.023018   -0.758567    2.228154
H     -0.602185   -1.778088   -1.242314
H      2.049742    1.238284    0.263174
H      4.826858    0.229287   -0.342363
H      4.093181    1.675807   -1.065853
H      5.975701    0.778672   -2.457444
H      4.439115    0.838214   -3.328136
H      5.638651   -1.642868   -1.983170
H      5.566388   -1.319986   -3.713610
H      3.083522   -2.271758   -4.719608
H      4.345750   -3.309161   -4.061147
H      2.181858   -4.494858   -4.060044
H      2.795231   -4.270349   -2.419834
H      0.426203   -3.695436   -2.436076
H      0.638728   -2.612293   -3.825128
H     -1.341324    1.571801   -1.122045
H     -4.380052    2.624956    5.864876
