44

C      1.557810    4.476709   -0.140373
N      0.640595    3.510895    0.455801
C     -0.344459    3.965374    1.370653
C     -0.319827    5.252440    1.940481
C     -1.297576    5.666167    2.846619
C     -2.312726    4.795116    3.213802
C     -2.352861    3.508006    2.675743
C     -1.388734    3.069938    1.748146
N     -1.395042    1.763670    1.194550
C     -2.590697    0.938214    1.332133
C     -0.263082    1.240210    0.517394
C     -0.115803   -0.132841    0.231576
C      1.012310   -0.646622   -0.430336
C      1.138232   -2.085345   -0.712359
C      1.021903   -3.036304    0.307215
C      1.145046   -4.399733    0.025814
C      1.384852   -4.851041   -1.263506
N      1.497070   -6.174216   -1.495581
C      1.730535   -6.540502   -2.773964
C      1.849482   -5.619086   -3.793431
N      1.740381   -4.290239   -3.579951
C      1.506778   -3.903662   -2.309290
C      1.381951   -2.550077   -2.015131
C      2.018585    0.249326   -0.799505
C      1.907398    1.613150   -0.512576
C      0.777300    2.135754    0.138011
H      1.874160    4.182252   -1.147417
H      2.446934    4.601517    0.486862
H      1.089885    5.456339   -0.289817
H      0.475292    5.953985    1.711689
H     -1.253861    6.664219    3.274177
H     -3.067438    5.107812    3.930340
H     -3.141946    2.848114    3.020360
H     -2.542644    0.341222    2.249085
H     -3.509369    1.535533    1.347303
H     -2.730060    0.265107    0.478503
H     -0.884464   -0.835913    0.538005
H      0.846910   -2.723889    1.335309
H      1.055541   -5.125242    0.830583
H      1.819876   -7.605107   -2.956009
H      2.036811   -5.923488   -4.816550
H      1.468038   -1.840350   -2.836083
H      2.918950   -0.109113   -1.294832
H      2.742678    2.248185   -0.788414
