41

C      1.677689   -4.178572   -0.999383
C      2.521773   -5.297862   -0.462737
C      2.679221   -5.148650    0.858267
C      1.981837   -3.965481    1.292372
C      1.385394   -3.368131    0.243386
C      0.573665   -2.140713    0.235139
C     -0.022921   -1.680381   -0.948233
C     -0.797063   -0.512802   -0.965836
C     -0.994381    0.228827    0.202629
C     -0.400130   -0.216369    1.385822
C      0.371886   -1.385602    1.400284
C     -1.806903    1.432096    0.185084
S     -1.181416    3.001600    0.548422
C     -2.709330    3.806421    0.280299
C     -2.841212    5.255373    0.414791
C     -3.618620    5.992579   -0.484736
C     -3.741313    7.373624   -0.337597
C     -3.080745    7.983810    0.714692
N     -2.323624    7.316041    1.609021
C     -2.223043    5.973156    1.437738
C     -3.601122    2.846180   -0.063801
C     -4.969295    2.670336   -0.403604
C     -5.172151    1.291295   -0.623726
N     -3.999131    0.564348   -0.436525
C     -3.117599    1.556615   -0.112095
H      2.238432   -3.597625   -1.738755
H      0.762031   -4.575247   -1.449771
H      2.934307   -6.096159   -1.060625
H      3.237461   -5.799537    1.514030
H      1.970573   -3.648168    2.323539
H      0.104538   -2.217047   -1.884986
H     -1.231833   -0.181311   -1.906750
H     -0.534726    0.338654    2.312047
H      0.813697   -1.687574    2.346136
H     -4.123181    5.501433   -1.312930
H     -4.336276    7.958037   -1.030335
H     -3.144794    9.056883    0.870543
H     -1.613399    5.478231    2.189295
H     -5.734894    3.431540   -0.474803
H     -6.077678    0.762978   -0.893913
H     -3.815793   -0.430249   -0.500817
