25

O     -3.230431   -0.313838   -4.624667
C     -2.829628    0.690692   -4.050665
C     -1.828537    0.630248   -2.966681
C     -1.441399    1.807888   -2.323444
C     -0.494464    1.755950   -1.295590
C     -1.272722   -0.594302   -2.590749
C     -0.324670   -0.641831   -1.565244
C      0.071345    0.531067   -0.906199
C      1.064790    0.473922    0.181338
C      0.710910    0.870687    1.418283
C      1.766595    0.768334    2.460688
N      2.977017    0.337511    2.293073
C      3.297821   -0.060459    1.026449
N      4.436488   -0.536014    0.572010
C      4.185226   -0.759287   -0.744265
N      2.957944   -0.458814   -1.164179
N      2.369487   -0.003035   -0.027053
H     -3.206070    1.692227   -4.318207
H     -1.862075    2.767591   -2.612671
H     -0.192496    2.682993   -0.811746
H     -1.568585   -1.511425   -3.096850
H      0.106052   -1.604204   -1.293252
H     -0.266351    1.238546    1.700501
H      1.458631    1.099762    3.466920
H      4.926763   -1.157609   -1.425556
