47

Si    -1.130976    2.896666    1.681070
C      0.158617    4.289713    1.511195
C      1.271095    3.852675    0.883246
C      1.241902    2.474521    0.488275
C      0.069554    1.729794    0.807622
C      0.079519    0.424268    0.397782
S      1.585359    0.112762   -0.410471
C      2.172678    1.719063   -0.179702
C      3.498204    2.082210   -0.689527
C      4.616957    1.731013    0.084222
C      5.900196    2.069354   -0.331031
C      6.079876    2.766568   -1.522969
C      4.983187    3.133746   -2.318239
C      5.186140    3.837326   -3.517400
C      4.111433    4.209036   -4.323843
C      2.817615    3.880255   -3.942876
C      2.598931    3.181435   -2.753808
C      3.668303    2.793045   -1.910833
C     -0.901067   -0.624815    0.528490
N     -1.072821   -1.547342   -0.395124
C     -2.061250   -2.428810   -0.000660
C     -2.646985   -2.183460    1.227510
S     -1.909558   -0.789069    1.908672
C     -3.698689   -2.927138    1.867411
S     -3.997179   -2.891040    3.590081
C     -5.325273   -4.001769    3.512577
C     -5.493924   -4.349886    2.222629
N     -6.435729   -5.203148    1.726619
C     -6.140050   -5.169679    0.366309
C     -5.051123   -4.314534    0.092313
C     -4.615762   -3.770435    1.332920
H     -2.351133    3.202130    0.894376
H     -1.361412    2.565613    3.108815
H     -0.036346    5.280546    1.888607
H      2.126897    4.488028    0.681555
H      4.486106    1.190617    1.019639
H      6.759499    1.791087    0.273137
H      7.091839    3.022280   -1.830661
H      6.192416    4.101503   -3.835921
H      4.286854    4.750919   -5.249238
H      1.974816    4.161554   -4.568696
H      1.572204    2.934139   -2.491059
H     -2.309433   -3.250812   -0.660491
H     -5.875451   -4.313367    4.389146
H     -7.149905   -5.710161    2.235217
H     -6.737767   -5.762527   -0.314649
H     -4.649588   -4.123840   -0.894008
