45

C     -3.534030   -1.813295   -5.669867
C     -2.580895   -1.652255   -4.655285
C     -3.028251   -0.548315   -3.909177
C     -2.687810    0.200959   -2.836432
S     -3.917254    1.420942   -2.638271
C     -4.828388    0.887625   -4.016693
C     -4.184295   -0.168963   -4.544114
O     -4.565880   -0.891524   -5.631732
C     -1.582474    0.104634   -1.913413
C     -1.454198   -0.900855   -0.939781
C     -0.325196   -1.005144   -0.019203
C     -0.191899   -2.010559    0.969935
C     -1.128060   -3.003491    1.166604
S     -0.689990   -4.069345    2.430603
C      0.759353   -3.207831    2.728004
C      0.922518   -2.125992    1.888446
C      2.048432   -1.238050    1.926199
C      3.171440   -1.307218    2.810768
N      3.318091   -2.262690    3.764866
C      4.407978   -2.263699    4.566017
C      5.417678   -1.332569    4.481778
C      5.293683   -0.347352    3.517093
C      4.167000   -0.332579    2.676982
C      4.004855    0.632227    1.701989
N      2.950291    0.700164    0.867155
C      1.957092   -0.204102    0.941957
C      0.824309   -0.105500    0.024429
C      0.631877    0.880267   -0.997451
C      1.469670    1.921977   -1.329122
N      0.906975    2.616317   -2.374835
C     -0.285968    2.039277   -2.734081
C     -0.490590    0.969551   -1.894254
H     -3.614093   -2.525009   -6.481261
H     -1.698701   -2.257898   -4.505223
H     -5.744960    1.353783   -4.346289
H     -2.257268   -1.633262   -0.879117
H     -2.058736   -3.185853    0.650046
H      1.400583   -3.568995    3.518037
H      4.440554   -3.064187    5.299820
H      6.273270   -1.372447    5.145509
H      6.071531    0.406162    3.420074
H      4.743580    1.415151    1.549888
H      2.419987    2.245159   -0.928153
H      1.316678    3.429741   -2.815334
H     -0.869853    2.448527   -3.547610
