23

N      2.362273   -0.630574   -0.371712
C      1.782526   -0.049167   -1.191288
C      1.092639    0.653646   -2.219753
C      1.505685    0.540132   -3.531530
N      0.890336    1.143779   -4.568851
C     -0.184135    1.879831   -4.258029
N     -0.678797    2.056986   -3.024431
C     -0.023255    1.447239   -2.003014
C     -0.618446    1.699251   -0.677661
C     -1.973925    1.385143   -0.443665
C     -2.599719    1.607937    0.791645
C     -1.807457    2.174525    1.786945
N     -2.043894    2.540007    3.082324
N     -0.953735    3.068830    3.661206
N      0.019990    3.058449    2.758973
C     -0.475589    2.514435    1.604586
C      0.134819    2.280776    0.363446
H      2.369303   -0.062344   -3.805964
H     -0.699827    2.374792   -5.074054
H     -2.567443    0.955996   -1.252354
H     -3.643107    1.357773    0.949901
H     -2.895913    2.466087    3.623932
H      1.172717    2.568571    0.230136
