37

C     -1.942857    3.733899   -0.771070
O     -1.754464    2.333587   -0.610628
C     -1.506245    1.595917   -1.740634
C     -1.466948    2.122223   -3.037471
C     -1.225556    1.290533   -4.133054
C     -1.027557   -0.072164   -3.943184
C     -1.065737   -0.605487   -2.655894
C     -1.288978    0.217361   -1.536988
C     -1.359920   -0.354976   -0.133459
N     -0.788677   -1.699839   -0.008952
C      0.574812   -1.881859    0.274174
C      1.537875   -0.892566    0.011846
C      2.907835   -1.103472    0.236569
C      3.886728    0.002012   -0.025834
C      3.332258   -2.336986    0.724658
C      2.405306   -3.352256    0.947888
C      1.035286   -3.146520    0.705870
C      0.089627   -4.296235    0.935180
H     -2.828758    3.945988   -1.378662
H     -2.110729    4.163535    0.221164
H     -1.049249    4.207525   -1.190821
H     -1.624620    3.177443   -3.232769
H     -1.196618    1.707626   -5.136174
H     -0.843037   -0.723571   -4.793317
H     -0.908771   -1.674733   -2.524771
H     -0.901976    0.317910    0.601613
H     -2.424160   -0.424767    0.125472
H     -1.367843   -2.287002    0.582261
H      1.236152    0.074383   -0.381614
H      4.918500   -0.364416   -0.006060
H      3.784224    0.782122    0.735063
H      3.712275    0.439128   -1.014631
H      4.385506   -2.523946    0.917968
H      2.760416   -4.316503    1.304534
H     -0.518290   -4.476733    0.042686
H     -0.563086   -4.083640    1.787988
H      0.628741   -5.225058    1.151232
