40

C     -1.879820   -0.446872   -0.912473
C     -3.024334    0.283255   -0.210057
C     -2.564986    0.956256    0.866854
C     -1.131691    0.744844    0.975933
C     -0.230154    1.222634    1.903699
C      1.127169    0.867941    1.789745
C      2.027351    1.359428    2.736576
C      3.384328    1.045174    2.679414
C      3.903120    0.227432    1.676065
C      5.298884   -0.035754    1.701736
C      5.968076   -0.834788    0.767358
C      5.163806   -1.391004   -0.243407
N      5.618301   -2.181963   -1.227402
S      4.307450   -2.577104   -2.155346
N      3.111955   -1.765526   -1.352501
C      3.673347   -1.133387   -0.303787
C      3.006745   -0.297210    0.683619
C      1.592734    0.024504    0.735205
C      0.622364   -0.438729   -0.191598
C     -0.709596   -0.075678   -0.058569
C     -4.398869    0.281721   -0.601948
S     -5.665215    1.152386    0.259852
C     -6.928169    0.647575   -0.806244
C     -6.373213   -0.134435   -1.745502
O     -7.024400   -0.737874   -2.776379
C     -5.959118   -1.381581   -3.376964
C     -4.730029   -1.174345   -2.737805
C     -5.018817   -0.335200   -1.642971
H     -2.041105   -1.529363   -0.904316
H     -1.748888   -0.079621   -1.935152
H     -3.116016    1.564667    1.566367
H     -0.576806    1.864650    2.708495
H      1.681147    2.003167    3.543944
H      4.034137    1.460956    3.448656
H      5.907895    0.404779    2.494342
H      7.034749   -1.015859    0.815156
H      0.889079   -1.082690   -1.021791
H     -7.962808    0.936201   -0.694924
H     -6.231650   -1.952624   -4.255041
H     -3.781148   -1.586955   -3.047285
