38

O     -0.548482   -3.900835   -2.432138
C     -0.187635   -3.582533   -1.302288
N     -0.262993   -2.291192   -0.805601
C     -0.847445   -1.144022   -1.396580
C     -1.597704   -1.198886   -2.576489
C     -2.217268   -0.051038   -3.084732
C     -2.104173    1.160087   -2.410229
Cl    -2.890177    2.560593   -3.024144
C     -1.356226    1.245827   -1.241616
C     -0.698622    0.107103   -0.753223
C      0.130735    0.222407    0.477339
O      0.021264   -0.661555    1.327995
N      1.017328    1.284363    0.616038
C      1.557759    2.084654   -0.493698
C      3.037067    2.417608   -0.264068
O      3.275445    3.135486    0.953678
C      2.362247    2.813162    2.013064
C      1.736609    1.422817    1.884204
C      0.387597   -4.541891   -0.366986
C      0.788190   -4.464583    0.958655
C      1.271162   -5.746730    1.321804
C      1.138171   -6.533827    0.205175
O      0.606431   -5.820121   -0.817111
H      0.109731   -2.136443    0.129521
H     -1.745704   -2.128241   -3.119422
H     -2.802183   -0.121858   -3.999129
H     -1.293154    2.190410   -0.708607
H      0.975120    3.011868   -0.524458
H      1.439840    1.553302   -1.442185
H      3.419501    3.028753   -1.087603
H      3.634669    1.499034   -0.232121
H      1.580101    3.581226    2.014856
H      2.908427    2.898990    2.957601
H      2.516221    0.651652    1.896261
H      1.050708    1.227387    2.715486
H      0.735884   -3.596083    1.601412
H      1.663031   -6.058449    2.279869
H      1.361022   -7.568729   -0.015189
