34

C      0.791684   -3.891213   -1.506354
O      0.918036   -2.476111   -1.702070
C      2.177998   -1.993653   -1.441065
C      3.341997   -2.702670   -1.748700
C      4.597555   -2.182390   -1.427394
C      4.697857   -0.941388   -0.803700
C      3.545605   -0.211717   -0.529029
C      2.272965   -0.717275   -0.865788
C      1.037367    0.106068   -0.552305
N      0.538335   -0.261210    0.773791
C     -0.646163    0.352275    1.202942
C     -0.893111    1.719895    1.024895
C     -2.045334    2.318420    1.550858
C     -2.966645    1.558164    2.273269
C     -4.149578    2.244048    2.848080
O     -4.265868    3.449510    2.984502
O     -5.127640    1.389776    3.207134
C     -2.723554    0.198739    2.483151
C     -1.562627   -0.389828    1.969164
H      1.248688   -4.204082   -0.554626
H      1.230570   -4.438685   -2.355861
H     -0.276885   -4.138093   -1.460490
H      3.292964   -3.660798   -2.252279
H      5.495373   -2.749610   -1.661920
H      5.672362   -0.541539   -0.539952
H      3.635875    0.759056   -0.039965
H      0.268468   -0.073817   -1.318203
H      1.304793    1.172962   -0.605749
H      0.472737   -1.270150    0.835442
H     -0.177069    2.350156    0.511926
H     -2.201762    3.385128    1.410282
H     -5.837371    1.972925    3.546398
H     -3.414857   -0.406651    3.069193
H     -1.372187   -1.439807    2.180188
