44

C      3.134363    0.046264    1.440234
C      1.954426   -0.121240    2.344891
C      0.834542   -0.241391    1.612506
C     -0.510326   -0.576176    2.051782
C     -1.428255   -0.831802    1.092780
C     -1.113626   -0.723587   -0.345847
C     -1.991512   -1.142899   -1.358957
C     -3.186341   -1.789406   -1.127268
S     -3.992055   -2.204601   -2.580732
C     -2.747642   -1.517824   -3.538232
C     -1.730641   -0.982916   -2.776098
C     -0.597317   -0.312715   -3.323514
C     -0.385626   -0.137962   -4.753633
C      0.660693    0.609722   -5.313205
C      1.412920    1.230487   -4.326814
C      2.402832    2.123770   -4.659532
S      3.054577    2.872227   -3.264292
C      1.997461    2.000555   -2.228212
C      1.243662    1.060409   -2.898100
C      0.284051    0.189763   -2.271311
C      0.102795   -0.154487   -0.850392
C      1.162204   -0.063775    0.192446
C      2.501062    0.005197    0.083140
C     -0.944321   -0.717321    3.457292
C     -0.354028   -1.656874    4.299412
C     -0.813570   -1.768671    5.609266
C     -1.849897   -0.948829    6.038176
C     -2.390957   -0.051495    5.133165
N     -1.969061    0.076727    3.856561
H      3.639942    1.000413    1.614100
H      3.844056   -0.776570    1.566769
H      2.034545   -0.203411    3.417633
H     -2.443432   -1.085375    1.379245
H     -3.648407   -2.064597   -0.190282
H     -2.859647   -1.550395   -4.611635
H     -1.079896   -0.596212   -5.456081
H      0.786992    0.737623   -6.379907
H      2.752816    2.415205   -5.640396
H      2.001637    2.249951   -1.177547
H      3.076634    0.018460   -0.829092
H      0.444038   -2.299826    3.942974
H     -0.368467   -2.492179    6.286152
H     -2.230618   -1.009824    7.051478
H     -3.205175    0.608680    5.418190
