48

C      2.390472    7.569782   -0.913079
C      1.267501    6.751410   -0.812938
C      1.418092    5.378583   -0.596447
C      2.694496    4.807079   -0.477389
C      2.882470    3.379648   -0.251548
N      3.992429    2.681399   -0.116870
N      3.610446    1.369566    0.077510
C      2.292947    1.354729    0.048487
C      1.365070    0.240715    0.199240
C     -0.025602    0.420323    0.138161
C     -0.893593   -0.666458    0.286134
C     -0.387120   -1.954880    0.498221
N     -1.272955   -3.062357    0.648998
C     -1.707021   -3.826162   -0.483473
C     -1.290270   -3.549139   -1.797306
C     -1.739057   -4.321045   -2.874366
C     -2.612298   -5.383427   -2.658268
C     -3.037303   -5.675056   -1.364726
C     -2.587727   -4.902880   -0.288778
O     -3.063973   -5.270169    0.948973
C     -2.644860   -4.540427    2.037804
C     -3.151195   -4.952313    3.274745
C     -2.786412   -4.278136    4.437217
C     -1.916547   -3.193915    4.361700
C     -1.410948   -2.782631    3.123746
C     -1.766463   -3.448954    1.937912
C      0.999001   -2.141415    0.560259
C      1.864970   -1.053663    0.412085
O      1.757793    2.600254   -0.157410
C      3.814747    5.646379   -0.580836
C      3.664319    7.018582   -0.797223
H      2.273114    8.637453   -1.081452
H      0.272838    7.181123   -0.903297
H      0.525203    4.761605   -0.522055
H     -0.451700    1.407932   -0.025315
H     -1.969071   -0.511779    0.236434
H     -0.608444   -2.729221   -2.005561
H     -1.403096   -4.089518   -3.882185
H     -2.960617   -5.983424   -3.494814
H     -3.718387   -6.503375   -1.189787
H     -3.829297   -5.799655    3.327482
H     -3.178848   -4.598026    5.398884
H     -1.627444   -2.664538    5.266327
H     -0.733656   -1.933243    3.105312
H      1.404027   -3.137351    0.724538
H      2.939621   -1.224786    0.464308
H      4.818586    5.232573   -0.492728
H      4.542581    7.654758   -0.874940
