43

C      2.358088    4.505866    1.650864
C      3.384669    4.866208    0.614757
C      3.382740    3.934005   -0.346572
C      4.171098    3.852315   -1.548278
C      3.954332    2.805791   -2.367926
C      2.961488    1.768862   -2.064087
C      2.192452    1.770103   -0.944547
C      1.242212    0.697059   -0.726971
C      1.131906   -0.063244    0.390264
C      0.069972   -0.960030    0.161663
S     -0.631030   -2.163341    1.067293
C     -1.784515   -2.541687   -0.198751
C     -1.576795   -1.693604   -1.310994
C     -2.401765   -1.838763   -2.429625
N     -3.383459   -2.762976   -2.472219
C     -3.599035   -3.574071   -1.436987
C     -4.654277   -4.504942   -1.589192
C     -5.065204   -5.458787   -0.632780
C     -4.295091   -5.386527    0.520763
C     -4.521153   -6.224305    1.584297
S     -3.424601   -5.908603    2.860919
C     -2.652318   -4.648175    1.977410
C     -3.204993   -4.456177    0.731646
C     -2.812167   -3.508371   -0.244073
C     -0.504234   -0.800796   -1.066454
C      0.199037    0.296825   -1.790133
C      2.393781    2.903316   -0.038835
C      1.783028    3.224540    1.112963
H      2.822987    4.348505    2.628508
H      1.588675    5.279723    1.727701
H      4.008724    5.745412    0.650523
H      4.905476    4.616558   -1.771215
H      4.522621    2.697944   -3.286786
H      2.893746    0.965974   -2.793383
H      1.731363   -0.005496    1.286798
H     -2.297165   -1.220890   -3.315507
H     -5.199546   -4.480868   -2.535132
H     -5.882087   -6.146260   -0.807418
H     -5.263919   -7.003326    1.689831
H     -1.835326   -4.144064    2.466139
H     -0.476334    1.128315   -2.013500
H      0.671389   -0.073078   -2.704877
H      0.994148    2.669567    1.596058
