41

Si    -0.943589    0.643989    3.996146
C      0.467153    1.556140    4.868503
C      1.393385    2.040771    4.018261
C      1.074374    1.740645    2.626269
C     -0.113841    1.010011    2.376830
C     -0.514479    0.652455    1.071403
N     -1.589574   -0.084140    0.610228
C     -1.586720   -0.172998   -0.770380
C     -2.491659   -0.846163   -1.632369
C     -2.341178   -0.784454   -3.034318
C     -3.217391   -1.471276   -3.971831
C     -2.891993   -2.391800   -4.950757
C     -4.031119   -2.846722   -5.676333
C     -5.192679   -2.260731   -5.227358
S     -4.906820   -1.173643   -3.938942
C     -1.266063    0.018928   -3.430548
C     -0.927430    0.348941   -4.726625
N      0.141039    1.220920   -4.679419
C      0.491702    1.474076   -3.368484
C     -0.342920    0.709675   -2.609480
C     -0.484884    0.569424   -1.192683
C      0.206286    1.014159   -0.075829
C      1.446888    1.705908    0.146472
C      2.465362    2.085857   -0.670633
O      3.429046    2.698254    0.093479
C      3.007603    2.660152    1.396861
C      1.790942    2.028879    1.479287
H     -0.967647   -0.804296    4.319436
H     -2.246490    1.336824    4.152263
H      0.475564    1.646063    5.943905
H      2.276697    2.589543    4.311713
H     -2.290726   -0.509674    1.198115
H     -3.310374   -1.422110   -1.206235
H     -1.877543   -2.725515   -5.134500
H     -3.998822   -3.567110   -6.484230
H     -6.198504   -2.417983   -5.591524
H     -1.359003    0.076577   -5.680344
H      0.573107    1.650026   -5.487450
H      1.257631    2.198432   -3.154866
H      2.711768    2.001287   -1.714391
H      3.688856    3.096409    2.113138
