39

C      2.916213    1.171197   -4.577296
O      1.758770    1.955597   -4.320929
C      1.041285    1.664839   -3.192985
C     -0.085088    2.466797   -3.002597
C     -0.913689    2.287701   -1.892669
C     -0.619840    1.296928   -0.958822
N     -1.402676    1.049846    0.185231
C     -2.542450    1.693630    0.620115
O     -3.113288    2.624754    0.060163
C     -3.089880    1.103552    1.922248
O     -2.137877    0.222631    2.533055
C     -2.595412   -0.392084    3.649578
O     -3.708881   -0.263313    4.129920
C     -1.549711   -1.278786    4.220938
C     -0.243192   -1.311259    3.728858
C      0.654715   -2.172950    4.332348
N      0.338752   -2.981591    5.365527
C     -0.929341   -2.927142    5.825492
C     -1.900797   -2.100258    5.293601
C      0.516287    0.479076   -1.144071
O      0.723463   -0.467732   -0.162885
C      1.789107   -1.388244   -0.366208
C      1.342261    0.669597   -2.260098
H      2.655534    0.116841   -4.716568
H      3.659511    1.293695   -3.782639
H      3.363480    1.529442   -5.509498
H     -0.323465    3.243326   -3.726243
H     -1.777690    2.935994   -1.788153
H     -1.060146    0.295465    0.774139
H     -4.006653    0.555702    1.677288
H     -3.301661    1.934206    2.604371
H      0.084089   -0.686656    2.905911
H      1.684994   -2.238105    3.993241
H     -1.149461   -3.587316    6.660086
H     -2.905142   -2.098329    5.705522
H      1.650223   -1.958444   -1.290633
H      2.757113   -0.877014   -0.354502
H      1.778819   -2.097894    0.466793
H      2.217244    0.050044   -2.401010
