28

N      1.382327   -0.545921    0.354200
C      0.767377   -0.956242   -0.844464
C      1.354788   -2.006648   -1.565599
C      0.745378   -2.526968   -2.707828
C     -0.483264   -2.029407   -3.124234
C     -1.109299   -1.025107   -2.385712
C     -0.511964   -0.489015   -1.227309
C     -1.237831    0.543424   -0.467586
C     -1.459598    1.812481   -1.011020
C     -2.156305    2.780856   -0.284115
C     -2.646675    2.515057    0.986281
N     -3.312635    3.477413    1.655112
C     -3.762088    3.150265    2.885603
C     -3.554781    1.903419    3.437462
N     -2.888753    0.928175    2.783323
C     -2.432568    1.233425    1.551435
C     -1.737506    0.278811    0.817481
H      1.103235    0.384031    0.653834
H      2.389886   -0.664488    0.359434
H      2.301598   -2.428748   -1.238301
H      1.225543   -3.329338   -3.261503
H     -0.965970   -2.435836   -4.009010
H     -2.087423   -0.670916   -2.706314
H     -1.086875    2.058392   -2.003638
H     -2.320529    3.764296   -0.717594
H     -4.298127    3.926399    3.419238
H     -3.919483    1.650450    4.426134
H     -1.579527   -0.702519    1.262881
