39

O     -5.906595    1.597709    3.448327
C     -5.044445    0.756537    3.664767
C     -5.171049   -0.160826    4.814076
C     -4.252488   -1.094431    5.072465
C     -3.056840   -1.264674    4.223806
O     -2.239219   -2.139114    4.478294
C     -2.894262   -0.354691    3.072635
C     -1.764870   -0.476729    2.249286
C     -1.580416    0.370854    1.143013
C     -0.395101    0.243223    0.277317
C     -0.003304   -0.992453   -0.240682
C      1.123033   -1.096471   -1.062043
C      1.904505    0.034754   -1.398904
C      1.507470    1.284870   -0.873787
C      0.384243    1.361595   -0.058755
N      2.165389    2.423920   -1.121570
C      3.258593    2.364471   -1.910613
C      3.756404    1.203932   -2.490099
C      4.905375    1.229690   -3.302632
C      5.394685    0.060476   -3.877530
C      4.740947   -1.141480   -3.645339
C      3.598613   -1.172483   -2.838510
C      3.070655   -0.002018   -2.236059
C     -2.562634    1.344397    0.888205
C     -3.689234    1.470351    1.707770
C     -3.853933    0.618185    2.802874
H     -6.050878   -0.034764    5.434618
H     -4.343712   -1.770505    5.914897
H     -1.016108   -1.233487    2.483794
H     -0.576104   -1.891666   -0.020909
H      1.377715   -2.083706   -1.437009
H      0.118622    2.340839    0.337633
H      3.743306    3.324937   -2.068717
H      5.426570    2.166090   -3.491582
H      6.282626    0.088643   -4.503553
H      5.115857   -2.060203   -4.089737
H      3.124731   -2.138616   -2.687906
H     -2.462055    2.013407    0.033884
H     -4.433839    2.232945    1.485009
