40

Si    -1.037452    1.019952    1.378273
C     -0.476372    2.186522   -0.003675
C      0.145004    1.541049   -1.010454
C      0.218949    0.087205   -0.816143
C      0.780802   -0.818139   -1.682256
N      0.810128   -2.142652   -1.423745
C      0.264554   -2.615395   -0.260555
C     -0.335931   -1.753840    0.690194
N     -0.884361   -2.176558    1.845447
C     -0.853292   -3.495036    2.101198
C     -0.293684   -4.432517    1.247921
C     -0.285641   -5.802226    1.560069
C      0.285231   -6.705236    0.676634
C      0.827153   -6.204339   -0.487067
N      0.830672   -4.892235   -0.807875
C      0.277641   -3.986088    0.041048
C     -0.341138   -0.404867    0.380083
C     -0.650435    3.619587    0.094546
C      0.406367    4.547217    0.273843
C      0.222107    5.972031    0.371296
C     -1.032329    6.619595    0.291362
C     -2.048888    5.693103    0.100361
C     -3.381354    5.981934   -0.039035
N     -4.031951    4.781166   -0.229216
C     -3.128235    3.737858   -0.213264
C     -1.882968    4.276995    0.004853
H     -0.289429    1.272266    2.638421
H     -2.519928    0.973279    1.494398
H      0.561057    2.018933   -1.888044
H      1.232040   -0.517365   -2.622127
H     -1.307775   -3.783836    3.045627
H     -0.721623   -6.166524    2.487178
H      0.307236   -7.767891    0.888792
H      1.289631   -6.858103   -1.221245
H      1.425718    4.166861    0.350539
H      1.110215    6.588556    0.514601
H     -1.157952    7.690098    0.362099
H     -3.930844    6.913198   -0.030500
H     -5.028346    4.678994   -0.371291
H     -3.467912    2.722694   -0.365467
