38

C      1.255965   -2.650781    6.999046
C      1.239425   -1.278227    7.177861
C      0.860207   -0.786927    5.931653
C      0.656936    0.532438    5.446501
N      0.828689    1.589975    6.232434
S      0.471877    2.885409    5.208686
N      0.104964    2.069358    3.777467
C      0.257912    0.788520    4.090284
C      0.044839   -0.275771    3.158482
C      0.238024   -1.562310    3.615730
O     -0.000515   -2.465917    2.623412
C     -0.353152   -1.736370    1.512063
C     -0.685759   -2.282197    0.253333
C     -1.041839   -1.433343   -0.824933
C     -1.405872   -1.932936   -2.145473
C     -0.525296   -2.716192   -2.900933
C     -0.904838   -3.187883   -4.156403
C     -2.166396   -2.864729   -4.625667
N     -3.053056   -2.119330   -3.934759
C     -2.653543   -1.678326   -2.716161
C     -0.999664   -0.073507   -0.471372
C     -1.251582    0.998155   -1.302535
N     -1.095905    2.159698   -0.567714
C     -0.730479    1.859379    0.728184
C     -0.667221    0.500303    0.777572
C     -0.327283   -0.384784    1.835022
C      0.664621   -1.825452    5.066480
O      0.907865   -2.994004    5.717522
H      1.482218   -3.484764    7.649882
H      1.471114   -0.738357    8.084966
H     -0.678498   -3.361558    0.126374
H      0.464736   -2.954446   -2.518931
H     -0.230427   -3.791470   -4.753173
H     -2.507413   -3.208082   -5.598087
H     -3.400822   -1.092764   -2.185313
H     -1.522078    1.059762   -2.348632
H     -1.221676    3.095744   -0.931334
H     -0.556234    2.648047    1.444456
