30

O      6.269851    2.395444    1.524303
C      5.144532    1.626750    1.528303
C      5.274922    0.289731    1.881124
C      4.148240   -0.538342    1.899811
C      2.883527   -0.029391    1.568153
C      1.682057   -0.860671    1.575768
C      1.547622   -2.043129    2.273363
S     -0.016078   -2.694769    2.028087
C     -0.419727   -1.356333    1.007966
N     -1.658912   -1.312806    0.464883
C     -2.199230   -0.389599   -0.445734
C     -1.491573    0.663591   -1.026421
C     -2.121512    1.543924   -1.908809
C     -3.462212    1.352539   -2.189138
N     -4.198071    0.359553   -1.653824
C     -3.550921   -0.473953   -0.801481
N      0.549516   -0.480413    0.870668
C      2.779172    1.324450    1.208089
C      3.904641    2.153950    1.189249
H      6.028230    3.296703    1.254383
H      6.252104   -0.110351    2.137144
H      4.285423   -1.583074    2.163560
H      2.258092   -2.548567    2.910273
H     -2.277583   -2.077025    0.705169
H     -0.438392    0.818903   -0.815429
H     -1.571128    2.359298   -2.364433
H     -3.993062    2.011813   -2.869506
H     -4.186737   -1.253152   -0.389313
H      1.809905    1.743134    0.941973
H      3.789684    3.196052    0.909298
