38

C      1.056910    1.649887    6.235854
C     -0.240335    1.646018    6.694977
S     -1.296656    1.205045    5.423614
C      0.045211    1.068535    4.349979
N      1.219830    1.294956    4.911676
C     -0.103340    0.626426    2.965995
C      0.849594   -0.215957    2.370547
C      0.784361   -0.692382    1.036225
C      1.807374   -1.531190    0.611594
N      1.912188   -2.088838   -0.607613
C      0.933601   -1.808282   -1.500346
C      1.169377   -2.465791   -2.736999
N      2.187495   -3.302571   -3.149851
C      1.982210   -3.701499   -4.455102
C      0.814139   -3.121778   -4.913368
C      0.349394   -2.374642   -3.835134
C     -0.791007   -1.564812   -3.682706
C     -1.756022   -1.310699   -4.607339
N     -2.629447   -0.475148   -3.957677
C     -2.192891   -0.241875   -2.660137
C     -1.010482   -0.917191   -2.442103
C     -0.195114   -0.963727   -1.247497
C     -0.255694   -0.375775    0.099612
C     -1.242858    0.530760    0.672408
N     -2.318064    1.042068    0.054016
S     -3.117859    2.024099    1.103046
N     -2.156981    1.876034    2.431237
C     -1.157466    1.033355    2.116090
H      1.929425    1.891222    6.830122
H     -0.608513    1.877510    7.683777
H      1.694335   -0.519781    2.996320
H      2.626027   -1.801067    1.276604
H      2.957582   -3.571872   -2.551673
H      2.687207   -4.363453   -4.939053
H      0.379980   -3.239441   -5.896254
H     -1.912632   -1.622364   -5.630371
H     -3.468066   -0.076677   -4.361651
H     -2.805661    0.396078   -2.050171
