24

C      2.063005   -1.224001    0.965600
N      1.735052   -1.284824   -0.441593
N      2.628687   -1.822004   -1.297139
C      2.024515   -1.748432   -2.480822
C      0.758972   -1.146698   -2.392375
C      0.589254   -0.827716   -1.054268
C     -0.519901   -0.206248   -0.359015
O     -0.682119   -0.291160    0.856422
C     -1.534674    0.568445   -1.123096
C     -1.163092    1.474198   -2.125771
C     -2.144102    2.199795   -2.807955
C     -3.489196    2.029660   -2.479313
Cl    -4.692600    2.924635   -3.321412
C     -3.864321    1.145923   -1.468180
C     -2.886421    0.419417   -0.784076
H      1.384085   -1.887333    1.506491
H      1.961611   -0.190305    1.304624
H      3.095055   -1.554297    1.112303
H      2.530069   -2.138344   -3.355173
H      0.061321   -0.982487   -3.201583
H     -0.116575    1.638161   -2.371947
H     -1.853593    2.901419   -3.586192
H     -4.911592    1.022344   -1.203876
H     -3.179513   -0.261101    0.013491
