38

C     -2.850479   -1.895299   -3.451827
C     -2.292441   -1.088878   -2.292579
C     -0.775395   -1.163025   -2.204194
O     -0.104520   -1.796082   -3.010698
N     -0.300573   -0.439687   -1.125869
C      1.035806   -0.244664   -0.705685
C      2.122117   -0.787627   -1.406958
C      3.448292   -0.558071   -1.001277
C      4.589104   -1.148423   -1.792284
F      4.435408   -2.479526   -2.033458
F      5.796747   -1.024494   -1.170542
F      4.739428   -0.557998   -3.009969
C      3.682461    0.239388    0.121360
C      2.610779    0.780316    0.831119
C      1.278830    0.544834    0.447611
N      0.293355    1.135501    1.248523
C     -0.688954    0.259063    1.909762
C     -2.120264    0.786111    1.716323
O     -2.317973    1.187043    0.352188
C     -1.522871    2.344937    0.022948
C     -0.194713    2.446317    0.796496
H     -2.585173   -2.953558   -3.358237
H     -3.941660   -1.817366   -3.479852
H     -2.457108   -1.533932   -4.407727
H     -2.715085   -1.462718   -1.353071
H     -2.582176   -0.038444   -2.408764
H     -0.999748    0.033299   -0.562488
H      1.967751   -1.399140   -2.292538
H      4.698736    0.441776    0.455133
H      2.811111    1.389755    1.710315
H     -0.462017    0.207057    2.980567
H     -0.629442   -0.767959    1.530294
H     -2.331594    1.634755    2.378059
H     -2.842713   -0.002330    1.949623
H     -1.327258    2.297971   -1.053609
H     -2.128688    3.241292    0.195982
H      0.550230    2.998087    0.209462
H     -0.366909    3.052432    1.695446
