49

C     -1.842144   -4.447187   -0.379067
N     -2.080336   -3.008644   -0.434057
C     -3.324627   -2.530814   -0.920823
C     -4.242312   -3.352579   -1.602544
C     -5.453348   -2.850356   -2.081236
C     -5.765309   -1.510913   -1.901311
C     -4.867214   -0.670272   -1.241929
C     -3.645738   -1.153307   -0.735199
N     -2.707320   -0.321750   -0.070883
C     -3.115460    1.012023    0.358261
C     -1.369981   -0.743232    0.150076
C     -0.341998    0.148124    0.519504
C      0.982012   -0.275141    0.723057
C      2.030930    0.681648    1.111023
C      1.911762    1.429265    2.292438
C      2.895737    2.347658    2.686385
C      4.034135    2.530338    1.878314
C      4.142673    1.782255    0.704047
C      3.167628    0.859495    0.300431
N      5.326234    2.144069    0.102013
C      5.973876    3.086301    0.848353
N      7.158459    3.633819    0.518482
C      7.585666    4.543188    1.424295
C      6.915037    4.909524    2.584475
C      5.689549    4.308920    2.876473
C      5.197465    3.355274    1.968550
C      1.276078   -1.627050    0.533377
C      0.279859   -2.530992    0.153575
C     -1.050000   -2.118762   -0.037082
H     -1.171325   -4.726026    0.441426
H     -1.413746   -4.803135   -1.322108
H     -2.757927   -5.012010   -0.170980
H     -4.024168   -4.396789   -1.799360
H     -6.142840   -3.505330   -2.606954
H     -6.700181   -1.111968   -2.285553
H     -5.136287    0.377235   -1.157930
H     -4.173449    1.052189    0.640970
H     -2.933606    1.744697   -0.435236
H     -2.591112    1.334435    1.265025
H     -0.549151    1.209324    0.621167
H      1.042348    1.292846    2.933819
H      2.777451    2.908860    3.608537
H      3.281344    0.302444   -0.625702
H      5.684518    1.778490   -0.766190
H      8.541846    5.001878    1.182111
H      7.339494    5.651563    3.252013
H      5.137603    4.569707    3.772836
H      2.290784   -1.992051    0.678532
H      0.579729   -3.560591   -0.010057
