37

C     -3.471466    5.197920   -0.073177
C     -2.551186    4.640061    1.014576
C     -1.954365    3.493986    0.614753
C     -2.382815    3.169935   -0.701027
C     -3.279850    4.175838   -1.140475
C     -3.726012    3.963041   -2.414646
S     -3.028018    2.522724   -3.060896
C     -2.138992    2.176417   -1.610854
C     -1.318879    1.001793   -1.496036
C     -0.608194    0.325122   -2.478608
C      0.013883   -0.755810   -1.809602
N      0.836704   -1.826904   -2.019354
C      1.017388   -2.475605   -0.814556
C      1.770123   -3.616863   -0.517830
C      1.781615   -4.075314    0.814729
C      2.515787   -5.212097    1.176296
C      2.515513   -5.649727    2.494901
C      1.776520   -4.931358    3.413820
N      1.056122   -3.831161    3.105947
C      1.057789   -3.409821    1.828315
C      0.320883   -2.279874    1.496896
C      0.295090   -1.804155    0.175422
C     -0.324143   -0.721124   -0.498752
N     -1.149729    0.348688   -0.293600
H     -4.507460    5.235091    0.274616
H     -3.138212    6.188739   -0.393989
H     -2.397275    5.122355    1.968441
H     -1.242808    2.925081    1.195331
H     -4.405829    4.557952   -3.007952
H     -0.544683    0.583445   -3.526758
H      1.227105   -2.071586   -2.919569
H      2.327328   -4.131090   -1.294817
H      3.089855   -5.760839    0.434187
H      3.076355   -6.526780    2.796034
H      1.740312   -5.228252    4.458077
H     -0.236889   -1.767029    2.274302
H     -1.563716    0.578130    0.599916
