22

C     -3.341380   -0.417916    2.489448
C     -2.139672   -1.263322    2.364819
N     -1.832692   -2.359732    3.048009
N     -0.599621   -2.829919    2.597489
C     -0.228115   -1.996324    1.669735
S      1.093825   -1.795051    0.613931
C      0.245824   -0.334495    0.000238
C      0.869126    0.482977   -1.084361
C      2.097701    0.175137   -1.663633
C      2.589512    1.005879   -2.670238
C      1.849299    2.111918   -3.068815
C      0.638717    2.347163   -2.442739
N      0.136424    1.562219   -1.466251
N     -0.911023   -0.051380    0.551217
N     -1.131018   -1.011145    1.479149
H     -3.068931    0.604948    2.767209
H     -3.893746   -0.387341    1.545211
H     -4.010425   -0.811658    3.260758
H      2.686109   -0.683909   -1.363165
H      3.545798    0.789767   -3.140213
H      2.207231    2.775147   -3.849014
H      0.021054    3.198242   -2.716988
