46

C     -2.880428    1.856200    3.065211
C     -1.776804    2.916424    3.117774
C     -0.795206    2.650012    2.227503
C     -1.110501    1.457882    1.524041
C     -2.352132    0.960666    1.992571
C     -2.758603   -0.174372    1.334546
S     -1.560391   -0.616078    0.160272
C     -0.531759    0.719420    0.532359
C      0.713635    0.922773   -0.136948
S      0.879470    1.085255   -1.853370
C      2.604375    1.316681   -1.787072
C      3.402261    1.544411   -2.951272
S      4.501098    2.873415   -3.076858
C      4.998166    2.445295   -4.667987
C      4.333720    1.323634   -5.022154
C      4.350368    0.522297   -6.188257
C      3.486308   -0.573946   -6.093886
S      2.586653   -0.731233   -4.591863
C      3.439170    0.787009   -4.094123
C      2.961738    1.268632   -0.482763
C      4.099983    1.355616    0.362309
C      3.651599    1.172876    1.687491
N      2.275308    0.967507    1.739499
C      1.940527    1.046908    0.416180
C     -3.954259   -0.943279    1.532550
S     -4.650101   -1.244832    3.100143
C     -5.967174   -2.183042    2.466939
C     -5.830588   -2.218140    1.127064
C     -6.463406   -2.736860   -0.027897
C     -5.695302   -2.326481   -1.137828
N     -4.594984   -1.566029   -0.748236
C     -4.741565   -1.549569    0.611466
H     -3.837444    2.305603    2.786106
H     -2.960396    1.343136    4.027285
H     -1.802823    3.768719    3.780727
H      0.084934    3.255506    2.058102
H      5.728582    3.027894   -5.211228
H      4.955735    0.710612   -7.066509
H      3.319510   -1.332668   -6.846445
H      5.128023    1.521669    0.067816
H      4.217302    1.165681    2.610557
H      1.659081    0.794720    2.525531
H     -6.717978   -2.617253    3.110800
H     -7.364276   -3.333906   -0.078022
H     -5.848894   -2.520596   -2.191741
H     -3.858144   -1.133455   -1.293974
