33

O      0.588101   -4.251086    3.991510
C      1.151756   -3.160343    4.036781
C      1.168936   -2.167238    2.994873
C      1.792828   -0.940679    2.913644
C      1.459765   -0.408493    1.644322
C      0.625280   -1.319804    1.018759
O      0.475271   -2.403873    1.845013
C      0.045064   -1.274468   -0.290223
C      0.077779   -2.239338   -1.271945
C      0.665089   -3.502593   -1.173677
C      0.545758   -4.228268   -2.376127
C     -0.090556   -3.719808   -3.548328
C     -0.667499   -2.433874   -3.622017
C     -0.566074   -1.692655   -2.432009
N     -0.990430   -0.452557   -2.167640
N     -0.694336   -0.229114   -0.844981
C     -1.181006    0.971202   -0.214782
C     -1.870062    1.905378   -0.992869
C     -2.364737    3.060464   -0.389127
C     -2.168308    3.256468    0.970639
C     -1.479849    2.285645    1.674546
N     -0.983560    1.159600    1.115925
H      1.714002   -2.879977    4.943859
H      2.416894   -0.484574    3.669173
H      1.778756    0.538821    1.231246
H      1.149300   -3.903008   -0.292632
H      0.962208   -5.235720   -2.413361
H     -0.131997   -4.358457   -4.430755
H     -1.145713   -2.049833   -4.512110
H     -2.032170    1.751690   -2.056251
H     -2.903881    3.796216   -0.979552
H     -2.545921    4.141710    1.469814
H     -1.303931    2.388398    2.741687
