41

C     -6.236434    2.075749   -1.704674
C     -4.959744    1.603715   -1.377413
C     -4.997021    0.340623   -0.730591
C     -4.050044   -0.495322   -0.238378
S     -4.858007   -1.864083    0.435103
C     -6.424480   -1.271720    0.021296
C     -6.325261   -0.061958   -0.603907
S     -7.588421    1.041330   -1.257754
C     -2.602809   -0.402510   -0.199516
C     -1.887545   -0.224131    1.004593
C     -0.478660   -0.110119    0.987849
N      0.417375    0.067902    2.017476
C      1.714276    0.129909    1.544597
C      2.909294    0.302223    2.256857
C      4.118962    0.332210    1.544392
C      5.341445    0.502632    2.214202
C      6.546455    0.533016    1.510820
C      6.544767    0.393214    0.127474
C      5.338055    0.223048   -0.552585
C      4.116638    0.190320    0.140597
C      2.898561    0.018399   -0.546956
C      1.674547   -0.013784    0.153785
C      0.306726   -0.159392   -0.152142
C     -0.376382   -0.344988   -1.401819
C      0.192309   -0.429128   -2.638745
S     -1.039116   -0.665647   -3.818310
C     -2.285696   -0.651813   -2.626600
C     -1.795901   -0.455936   -1.350442
H     -6.473763    3.007086   -2.200888
H     -4.057278    2.159064   -1.604336
H     -7.329119   -1.818312    0.248894
H     -2.425034   -0.165979    1.948673
H      0.163034    0.142976    2.991506
H      2.896057    0.409735    3.337531
H      5.364637    0.613584    3.296047
H      7.483997    0.665550    2.044163
H      7.480810    0.416059   -0.424193
H      5.358388    0.115234   -1.634897
H      2.911771   -0.089425   -1.625321
H      1.222888   -0.375809   -2.948936
H     -3.307905   -0.792488   -2.950072
