39

C      1.434274   -2.887423    3.146033
C      0.972031   -4.153324    2.440561
C      0.818199   -3.986005    0.925203
N     -0.246418   -3.069691    0.549051
C     -1.556349   -3.446171    0.644059
O     -1.985653   -4.547310    0.946845
S     -2.610616   -2.090840    0.318724
C     -1.238733   -1.038146   -0.246724
C     -1.328496    0.360740    0.350212
C     -0.546970    1.360665   -0.487477
O     -0.231995    1.117126   -1.646440
N     -0.321916    2.541582    0.200575
C      0.348422    3.692791   -0.264430
C      0.446131    4.775375    0.618648
C      1.093159    5.955257    0.237135
C      1.646346    6.076920   -1.040013
C      2.371515    7.326034   -1.442965
C      1.563341    4.990600   -1.916094
C      0.915295    3.810006   -1.533086
C      0.009571   -1.755895    0.230029
O      1.108043   -1.218426    0.320093
H      1.607631   -3.091210    4.207579
H      2.369809   -2.516327    2.715968
H      0.681933   -2.095858    3.079286
H      0.027435   -4.485908    2.885794
H      1.708019   -4.944084    2.628410
H      0.585674   -4.964619    0.488261
H      1.764140   -3.647373    0.487399
H     -1.244023   -1.047577   -1.341083
H     -2.365509    0.719850    0.357749
H     -0.951202    0.376018    1.380365
H     -0.667017    2.593503    1.150497
H      0.023895    4.719548    1.618331
H      1.161344    6.778085    0.945170
H      1.948829    8.202446   -0.940505
H      3.430927    7.244765   -1.181121
H      2.285081    7.497243   -2.521133
H      2.003551    5.049855   -2.909350
H      0.879045    2.998937   -2.253194
