38

O      5.984916   -1.199137   -3.600368
C      4.995500   -0.556057   -3.924795
C      4.923312    0.079626   -5.254849
C      3.856832    0.784340   -5.639749
C      2.687161    0.968701   -4.758432
O      1.720407    1.612941   -5.143278
C      2.730628    0.351012   -3.418179
C      1.641738    0.509849   -2.547985
C      1.649941   -0.067137   -1.266218
C      0.506851    0.098848   -0.351704
C     -0.806101   -0.181997   -0.773667
C     -1.893721   -0.026861    0.092048
C     -1.681851    0.413101    1.394759
C     -0.391448    0.697517    1.831932
C      0.695280    0.542776    0.968830
O     -0.130069    1.136302    3.105975
C     -1.226493    1.274659    3.919499
C     -1.010873    1.718220    5.223464
C     -2.094715    1.874711    6.089461
C     -3.389046    1.587802    5.650161
C     -3.602476    1.143802    4.343854
C     -2.518642    0.988321    3.480929
O     -2.778587    0.549650    2.206943
C      2.782104   -0.807747   -0.883298
C      3.870292   -0.967122   -1.747540
C      3.843348   -0.385172   -3.017814
H      5.783069   -0.058143   -5.900531
H      3.800613    1.251575   -6.616307
H      0.784391    1.100546   -2.871297
H     -0.993347   -0.536984   -1.785818
H     -2.899848   -0.250840   -0.251339
H      1.691551    0.783956    1.332461
H     -0.003765    1.941338    5.563831
H     -1.930557    2.220664    7.107045
H     -4.231909    1.710494    6.325912
H     -4.608648    0.920582    4.000722
H      2.820702   -1.281122    0.097321
H      4.733034   -1.547880   -1.425046
