36

C     -2.338337   -0.880110    0.212291
C     -1.604898   -1.100612   -0.939256
O     -0.409588   -0.449422   -0.847755
C     -0.375054    0.186960    0.357622
C     -1.553038   -0.050727    1.054489
C     -1.710513    0.523252    2.327448
C     -0.674079    1.315558    2.850116
C      0.512970    1.547164    2.132515
C      1.555355    2.337254    2.645066
C      2.737993    2.558190    1.910995
C      3.781301    3.344238    2.414670
C      4.918685    3.522560    1.642194
N      5.090875    2.981667    0.419227
C      4.073649    2.224431   -0.054076
C      2.883989    1.976546    0.634422
C      1.854488    1.184305    0.104964
C      0.681815    0.975233    0.852338
C     -1.870687   -1.854453   -2.145812
N     -3.081358   -2.503206   -2.217297
C     -3.426462   -3.241950   -3.316299
C     -2.668429   -3.447437   -4.462884
C     -1.418397   -2.800880   -4.434478
N     -0.506324   -2.844977   -5.418420
S      0.781042   -1.932229   -4.908013
N      0.240788   -1.442106   -3.421662
C     -0.984960   -1.972520   -3.247880
H     -3.324342   -1.276484    0.411071
H     -2.617588    0.359830    2.902186
H     -0.807611    1.755055    3.837444
H      1.447329    2.788374    3.630016
H      3.717136    3.813014    3.390799
H      5.747710    4.125944    2.001211
H      4.248196    1.805464   -1.041973
H      1.956570    0.730622   -0.879218
H     -4.412362   -3.701114   -3.239849
H     -3.003621   -4.045660   -5.297903
