48

O     -1.708440    1.621263    1.644341
C     -0.972602    0.658254    1.767222
O     -0.709442   -0.045910    2.895701
C     -1.425539    0.411662    4.047339
C     -1.239362   -0.606042    5.154162
C     -0.166892    0.088778    0.680155
C      1.151323    0.577451    0.578629
C      2.044134    0.105537   -0.395297
N      3.347417    0.651990   -0.452418
C      4.553200    0.044472   -0.945589
C      5.317670    1.156673   -0.223165
C      4.050597    1.316060    0.615884
C      1.543595   -0.862752   -1.278806
C      2.343635   -1.426879   -2.374010
O      1.952865   -0.826621   -3.523691
C      2.653247   -1.280603   -4.686306
C      2.060243   -0.588708   -5.896280
O      3.172022   -2.310594   -2.243979
C      0.225099   -1.352633   -1.174819
C     -0.668531   -0.878398   -0.203972
N     -1.978444   -1.413137   -0.151527
C     -3.180777   -0.764644    0.307122
C     -3.955353   -1.875653   -0.405212
C     -2.680513   -2.065794   -1.227105
H     -1.022444    1.380333    4.360090
H     -2.493321    0.511391    3.820293
H     -0.176180   -0.763494    5.369653
H     -1.649021   -1.576932    4.850825
H     -1.742035   -0.282560    6.069953
H      1.471747    1.343545    1.281492
H      4.723616   -0.958393   -0.546632
H      4.643643    0.066131   -2.033550
H      6.213576    0.842669    0.315319
H      5.554905    2.025402   -0.851080
H      3.721911    2.344734    0.779279
H      4.039374    0.746110    1.551866
H      2.536706   -2.362560   -4.792192
H      3.715429   -1.028398   -4.593958
H      1.006924   -0.870016   -6.012736
H      2.086666    0.499512   -5.781261
H      2.598710   -0.864582   -6.806461
H     -0.096985   -2.116942   -1.878544
H     -3.317733    0.233303   -0.121781
H     -3.298127   -0.751351    1.394202
H     -4.838686   -1.555586   -0.961131
H     -4.213785   -2.726698    0.236357
H     -2.646225   -1.497806   -2.161690
H     -2.373181   -3.101591   -1.388215
