41

Si    -3.938299   -3.722063   -2.861313
C     -5.278653   -2.909284   -3.862887
C     -5.258996   -1.574595   -3.716223
C     -4.201413   -1.092012   -2.815631
N     -4.099911    0.220320   -2.604942
C     -3.105713    0.605388   -1.765364
C     -2.172242   -0.211232   -1.091378
C     -1.142775    0.370204   -0.201689
C     -1.011868    1.761375    0.037368
C     -0.036088    2.318237    0.883690
C      0.888465    1.519629    1.557858
C      0.797015    0.140186    1.353240
C     -0.188217   -0.429465    0.494091
C     -0.336915   -1.815601    0.233904
C      0.481943   -2.774232    0.791671
S      0.059665   -4.352937    0.294948
C     -1.222445   -3.760215   -0.676827
C     -1.343281   -2.388596   -0.636546
C     -2.325557   -1.624466   -1.353664
C     -3.362172   -2.054046   -2.232681
C      1.891117    2.107116    2.448238
C      1.606981    3.076338    3.425073
N      2.473357    3.690907    4.297676
C      3.800852    3.382006    4.288503
C      4.250607    2.421435    3.362897
N      5.514414    1.994517    3.209018
S      5.485786    0.879877    1.981235
N      3.872915    0.881825    1.600224
C      3.271566    1.766544    2.418410
H     -2.923580   -4.391764   -3.711510
H     -4.481531   -4.580662   -1.780171
H     -5.964780   -3.476720   -4.472288
H     -5.933512   -0.876953   -4.192254
H     -3.097167    1.685384   -1.652931
H     -1.674971    2.478674   -0.439563
H     -0.009759    3.402283    0.989294
H      1.499278   -0.509020    1.870462
H      1.316340   -2.657640    1.467798
H     -1.790114   -4.501771   -1.209409
H      0.577275    3.413732    3.556991
H      4.445197    3.890628    4.993050
