28

C     -0.006177    5.495144    2.164001
C     -0.666008    4.634682    3.051376
C     -0.804258    3.268768    2.775346
C     -0.248111    2.838493    1.577187
O     -0.244015    1.572649    1.076357
C      0.427116    1.678525   -0.125925
C      0.658471    0.550654   -0.994098
N      0.252618   -0.685605   -0.723735
C      0.674743   -1.426679   -1.794696
C      0.548792   -2.786236   -2.091030
C      1.098765   -3.233812   -3.284508
O      1.103587   -4.501247   -3.787290
C      1.769739   -4.371211   -4.970952
N      2.182492   -3.155478   -5.262070
C      1.760001   -2.413321   -4.190057
C      1.884814   -1.054110   -3.891731
C      1.334251   -0.608189   -2.697826
O      1.330278    0.656327   -2.197753
N      0.833485    2.912841   -0.398016
C      0.410352    3.653874    0.674779
C      0.541632    5.018060    0.963044
H      0.084235    6.552001    2.408237
H     -1.080232    5.035514    3.975099
H     -1.310442    2.587961    3.448039
H      0.041177   -3.463341   -1.414231
H      1.894427   -5.273481   -5.553541
H      2.392339   -0.376265   -4.568016
H      1.052871    5.681253    0.274116
