38

C      2.234412   -0.558583    1.629576
C      1.496182    0.602947    0.960162
C      0.258893    0.981094    1.811976
O      0.422897    1.744389    2.774919
N     -0.980893    0.386543    1.600440
C     -1.235715   -0.760788    0.729904
C     -2.450460   -1.568884    1.176964
C     -3.714780   -0.715230    1.246609
C     -3.428283    0.741749    1.606878
C     -2.117543    0.898192    2.368544
N      1.220195    0.409491   -0.471274
N      1.485357   -0.849805   -1.031801
C      1.331996   -1.010377   -2.311984
N      0.923220    0.033414   -3.124803
C      0.701485    0.025236   -4.479472
C      0.310430    1.295117   -4.851272
C      0.299219    2.092851   -3.679962
C      0.681834    1.282546   -2.629877
C      0.852786    1.544951   -1.226590
O      0.684782    2.656682   -0.735215
H      1.648920   -1.482688    1.623729
H      2.455530   -0.323791    2.676715
H      3.185235   -0.759278    1.124155
H      2.158656    1.478973    1.009454
H     -0.366672   -1.418889    0.720500
H     -1.398246   -0.377311   -0.283279
H     -2.611959   -2.418302    0.503888
H     -2.251244   -1.989660    2.171164
H     -4.398850   -1.154982    1.982324
H     -4.239995   -0.745610    0.284311
H     -3.373337    1.330344    0.681833
H     -4.260668    1.150986    2.190118
H     -2.151092    0.345779    3.315253
H     -1.961828    1.955586    2.609991
H      1.526146   -1.989871   -2.776919
H      0.839326   -0.874027   -5.065269
H      0.062696    1.614816   -5.856133
H      0.043339    3.143146   -3.602391
