36

C     -0.470257   -4.104419   -2.416031
C      0.718103   -3.970662   -1.732003
C      0.606173   -2.740905   -1.091712
C      1.502786   -2.082603   -0.234820
C      2.699768   -2.517927    0.233502
O      3.144095   -1.578696    1.119298
C      2.201390   -0.579388    1.159205
C      1.167021   -0.812350    0.274216
C     -0.011181   -0.025283    0.043834
C     -0.943362   -0.849900   -0.737456
C     -2.207406   -0.239284   -0.831940
C     -3.361687   -0.761452   -1.375233
N     -4.365477    0.168321   -1.226167
C     -3.883403    1.272221   -0.570684
C     -2.552575    1.046039   -0.295779
C     -1.685456    1.937436    0.374408
C     -2.120181    3.224372    0.837728
C     -1.263092    4.145255    1.433627
C      0.084481    3.751284    1.503303
N      1.066494    4.531900    1.980623
S      2.473839    3.690082    1.783879
N      1.897291    2.297843    1.112581
C      0.558676    2.385782    1.025657
C     -0.349485    1.379203    0.494734
C     -0.605114   -2.114239   -1.314686
N     -1.248354   -2.991244   -2.167550
H     -0.834756   -4.889581   -3.064854
H      1.537997   -4.675474   -1.721826
H      3.320772   -3.392041    0.107470
H      2.426077    0.178169    1.891901
H     -3.608136   -1.703830   -1.834362
H     -5.321874    0.046769   -1.534975
H     -4.545290    2.101021   -0.361876
H     -3.160795    3.520848    0.718373
H     -1.595533    5.117391    1.775143
H     -2.146653   -2.829609   -2.593214
