38

C     -2.415907    2.318487   -2.046926
C     -1.388837    1.659069   -1.175309
C     -0.073871    2.136914   -1.142784
C      0.877829    1.534505   -0.316187
C     -1.746529    0.591959   -0.343340
C     -0.796559   -0.010088    0.485420
C      0.526874    0.445281    0.491670
C      1.522174   -0.180072    1.375359
C      1.855832    0.498709    2.496178
C      2.801767   -0.070002    3.438395
C      3.343399   -1.283669    3.240693
C      2.991612   -2.020289    2.079355
C      3.307836   -3.262004    1.591524
N      2.684926   -3.485351    0.399042
C      2.003492   -2.384041    0.119313
C      1.248823   -2.215251   -1.120601
C      0.104865   -2.990211   -1.349974
C     -0.617734   -2.849342   -2.536299
C     -0.192130   -1.944594   -3.507788
C      0.961582   -1.189716   -3.300358
C      1.685573   -1.330910   -2.114495
N      2.110208   -1.449729    1.155158
H     -2.909236    3.126599   -1.498257
H     -3.172811    1.597089   -2.372398
H     -1.954324    2.733102   -2.949291
H      0.219802    2.978625   -1.765716
H      1.896214    1.916040   -0.313496
H     -2.767327    0.216727   -0.339274
H     -1.096443   -0.841608    1.119073
H      1.427560    1.467570    2.737999
H      3.053053    0.513396    4.319095
H      4.043406   -1.705993    3.954916
H      3.952139   -4.008726    2.036553
H     -0.222854   -3.709047   -0.602461
H     -1.507575   -3.449931   -2.703551
H     -0.754057   -1.834899   -4.431424
H      1.299928   -0.492793   -4.062105
H      2.591134   -0.747398   -1.969672
