42

C     -2.161208   -1.382096   -1.959315
C     -0.688922   -1.655445   -1.805991
C     -0.116553   -1.530574   -0.450505
C      0.050223   -0.266384    0.173667
C     -0.218290    0.972292   -0.462035
C     -0.057315    2.205648    0.188584
N     -0.312187    3.391143   -0.521728
C      0.217788    4.689113   -0.406306
C      1.459442    4.959179    0.179597
C      1.926546    6.271054    0.307791
C      1.150219    7.335804   -0.141127
C     -0.091427    7.088356   -0.719138
C     -0.553027    5.775160   -0.847170
C      0.397352    2.196427    1.506075
C      0.685910    0.995923    2.160267
C      0.526992   -0.235730    1.512988
C      0.838142   -1.428608    2.189262
C      0.696433   -2.640553    1.534835
C      0.226046   -2.697719    0.223627
C      0.111388   -4.120852   -0.232669
C      1.002706   -4.838837    0.790715
C      0.942099   -4.012159    2.081170
O      0.023543   -1.995586   -2.744476
H     -2.648084   -2.273727   -2.363586
H     -2.626253   -1.144523   -0.998453
H     -2.304077   -0.537881   -2.638628
H     -0.534110    0.983004   -1.503259
H     -0.941772    3.282060   -1.308557
H      2.099018    4.146593    0.512750
H      2.899889    6.456738    0.754160
H      1.512759    8.355328   -0.041209
H     -0.704529    7.915438   -1.066917
H     -1.532792    5.606416   -1.286733
H      0.511479    3.127960    2.054418
H      1.038974    1.038347    3.188769
H      1.195461   -1.410052    3.215948
H      0.483390   -4.275267   -1.248993
H     -0.927707   -4.457537   -0.156802
H      2.037257   -4.850723    0.419910
H      0.705099   -5.880461    0.946493
H      0.102328   -4.322300    2.711434
H      1.878131   -4.078606    2.642638
