36

C     -1.447234    4.206888   -0.670521
C     -0.296251    3.508396   -0.051775
C      0.844756    4.084497    0.467272
O      1.688210    3.141141    0.953542
C      1.098359    1.928994    0.753412
C      1.639725    0.694353    1.116987
C      2.966015    0.536926    1.791213
C      0.825514   -0.413850    0.799573
O      1.339397   -1.679081    1.169158
C      0.645580   -2.856323    0.958596
O      1.106274   -3.939076    1.303881
C     -0.671748   -2.743692    0.286196
C     -1.173058   -1.558597   -0.113703
C     -0.420130   -0.321456    0.167723
C     -0.904549    0.957213   -0.162095
C     -0.132752    2.100413    0.132741
C     -2.493377   -1.466787   -0.848009
C     -3.032934   -2.812522   -1.338506
C     -2.868644   -3.885473   -0.274521
C     -1.395864   -4.053578    0.095315
H     -2.366598    3.995508   -0.115160
H     -1.584183    3.876423   -1.705112
H     -1.298194    5.291468   -0.678422
H      1.189290    5.105346    0.561019
H      2.839488    0.062486    2.769599
H      3.454779    1.503424    1.948826
H      3.632229   -0.078132    1.177834
H     -1.868592    1.097264   -0.638704
H     -3.234425   -1.010126   -0.179306
H     -2.399783   -0.818570   -1.727579
H     -4.089254   -2.708712   -1.611230
H     -2.497841   -3.114211   -2.248109
H     -3.270840   -4.839415   -0.633703
H     -3.446087   -3.610449    0.617290
H     -0.886921   -4.620297   -0.694741
H     -1.345116   -4.656859    1.009820
