33

O     -0.536485    0.945666   -2.311874
S      0.470065    0.573865   -1.333113
O      1.701441   -0.084220   -1.735316
C      0.855978    2.000984   -0.346871
C      2.217116    2.309659   -0.190704
C      2.598002    3.395837    0.584593
C      1.625372    4.176313    1.202135
C      0.258564    3.893785    1.049273
C     -0.686683    4.713071    1.687983
C     -2.052141    4.475593    1.557293
C     -2.491194    3.415724    0.779524
C     -1.564489    2.589546    0.137664
C     -0.163197    2.794336    0.256606
N     -0.271306   -0.525340   -0.261926
N     -0.060882   -0.557780    1.076480
N     -0.734179   -1.591667    1.561655
C     -1.321347   -2.247065    0.513136
C     -2.110541   -3.405958    0.497939
C     -2.579743   -3.881721   -0.732283
C     -2.268979   -3.218403   -1.920849
C     -1.484957   -2.058824   -1.924454
C     -1.030129   -1.595945   -0.681868
H      2.990743    1.706385   -0.662751
H      3.651062    3.634458    0.713110
H      1.947140    5.020842    1.809740
H     -0.363321    5.553845    2.299212
H     -2.768773    5.120770    2.058576
H     -3.556273    3.228834    0.665141
H     -1.977428    1.789122   -0.470006
H     -2.344476   -3.922628    1.422933
H     -3.190871   -4.781564   -0.761178
H     -2.643777   -3.610122   -2.865480
H     -1.252336   -1.550320   -2.856364
