44

O     -6.151847   -1.026799   -5.664403
C     -6.130599   -0.447853   -4.584209
C     -7.362242    0.177857   -4.042377
C     -7.287199    0.812402   -2.867680
N     -6.142464    0.943476   -2.129469
C     -4.948007    0.331712   -2.539880
C     -3.781080    0.443699   -1.776182
C     -2.571045   -0.137838   -2.201836
C     -1.352390   -0.021893   -1.386012
C     -0.855972    1.223771   -0.998918
C      0.307727    1.318986   -0.229171
C      1.023544    0.179733    0.186334
C      0.521158   -1.075723   -0.175763
C     -0.647659   -1.159824   -0.967402
C      1.206101   -2.361776    0.206576
C      1.487696   -2.449331    1.700484
C      2.762392   -1.747073    2.087407
C      3.692726   -2.455823    2.877092
C      4.887396   -1.870312    3.288658
C      5.168590   -0.563439    2.922118
C      4.248490    0.150340    2.152396
C      3.028506   -0.417854    1.729073
N      2.177043    0.396215    0.960033
C     -2.554191   -0.829123   -3.426394
C     -3.705904   -0.934693   -4.209266
C     -4.893609   -0.350701   -3.766384
H     -8.271412    0.086808   -4.619668
H     -8.162749    1.276920   -2.422916
H     -6.210493    1.299545   -1.183182
H     -3.810156    0.980609   -0.830560
H     -1.361083    2.137425   -1.304509
H      0.656578    2.311826    0.046458
H     -1.023422   -2.142167   -1.252837
H      2.118675   -2.479716   -0.391371
H      0.555083   -3.206198   -0.054625
H      0.657535   -2.053386    2.299046
H      1.573172   -3.513359    1.956911
H      3.486991   -3.481790    3.176315
H      5.592957   -2.434873    3.891836
H      6.098555   -0.095654    3.232738
H      4.497090    1.173233    1.878788
H      2.475669    1.364862    0.948953
H     -1.630700   -1.279201   -3.787484
H     -3.674385   -1.464216   -5.158614
