44

C      2.159637    4.043697   -0.504805
C      1.207574    3.401904    0.463442
C      1.433645    2.078877    0.517236
C      0.767528    1.026572    1.281816
C      1.197567   -0.238529    1.047469
C      2.280779   -0.566394    0.114822
C      2.951659    0.370897   -0.596551
C      3.993315   -0.071783   -1.463680
S      5.656858    0.294180   -1.129026
C      6.234677   -0.536524   -2.523743
C      5.193203   -1.074462   -3.221717
S      5.159617   -2.038149   -4.742101
C      3.414578   -2.047976   -4.516671
C      2.931879   -1.377612   -3.386462
C      3.971707   -0.800746   -2.609940
C      2.520408    1.750130   -0.410552
C      2.950715    2.873193   -1.006625
C     -0.274159    1.192467    2.253023
C     -0.502774    2.225359    3.152068
C     -1.661108    1.907269    3.900245
C     -2.114786    0.682364    3.449023
O     -1.266559    0.257311    2.461390
C     -3.248788   -0.092112    3.871117
S     -4.297642    0.394831    5.156262
C     -5.301995   -0.996323    5.011936
C     -4.848792   -1.805430    4.010945
S     -5.473323   -3.377973    3.393849
C     -4.128987   -3.293734    2.264247
C     -3.301617   -2.169643    2.368791
C     -3.711710   -1.277922    3.398551
H      1.619447    4.532152   -1.321079
H      2.804102    4.770200   -0.001436
H      0.452326    3.950053    1.003558
H      0.763039   -1.085310    1.574718
H      2.534952   -1.621213    0.038489
H      7.285950   -0.594977   -2.769222
H      2.826034   -2.566100   -5.261664
H      1.875680   -1.316105   -3.152827
H      3.731946    2.943289   -1.748139
H      0.112232    3.107090    3.266021
H     -2.106549    2.505070    4.683281
H     -6.160911   -1.161907    5.647501
H     -4.024430   -4.109438    1.561801
H     -2.446477   -2.016329    1.721297
