45

Si    -1.805076   -1.690104    4.350600
C     -1.151597   -0.034281    3.668548
C     -0.886776   -0.116156    2.347113
C     -1.146258   -1.395835    1.748791
C     -1.649683   -2.413755    2.613502
C     -1.923460   -3.608851    2.012017
S     -1.553679   -3.474049    0.326325
C     -1.017951   -1.833124    0.451096
C     -0.534785   -1.138122   -0.707712
S      1.004254   -0.318418   -0.730806
C      0.831541    0.211842   -2.367778
C      1.823821    0.971503   -3.086303
C      2.375045    0.580750   -4.334911
C      3.370603    1.333037   -5.053017
C      3.916077    2.557237   -4.605696
C      3.353375    2.928438   -3.391798
C      3.643658    4.071981   -2.694375
N      2.852457    4.061801   -1.566024
C      2.063422    2.929612   -1.543579
C      2.366560    2.191990   -2.663690
C     -0.335677   -0.272711   -2.836586
O     -0.852739   -0.114481   -4.088233
C     -2.037797   -0.810595   -3.943306
C     -2.227347   -1.363214   -2.671104
C     -1.080601   -1.001503   -1.939629
C     -2.439029   -4.838877    2.557542
C     -3.417777   -5.650861    2.012445
C     -3.682319   -6.805490    2.806323
C     -2.891654   -6.845957    3.931401
S     -1.840875   -5.501819    4.023226
H     -3.204697   -1.542032    4.822116
H     -0.853867   -2.251701    5.341445
H     -1.034015    0.823645    4.310632
H     -0.514095    0.725215    1.774408
H      2.030178   -0.350443   -4.787201
H      3.721225    0.929845   -6.003653
H      4.659798    3.115969   -5.154761
H      4.322423    4.891376   -2.887025
H      2.842313    4.786165   -0.860030
H      1.366807    2.771587   -0.732346
H     -2.647802   -0.825141   -4.837116
H     -3.082097   -1.940043   -2.348552
H     -3.930132   -5.427025    1.084211
H     -4.412667   -7.566808    2.561076
H     -2.876123   -7.602502    4.703962
