38

C     -2.757086   -4.083746   -2.570077
O     -2.090812   -2.879860   -2.210144
C     -1.555363   -2.804806   -0.950420
C     -1.602635   -3.831772   -0.002164
C     -1.029470   -3.655754    1.261614
C     -0.399591   -2.452459    1.594535
C      0.191911   -2.311017    2.958384
C      0.953735   -1.056152    3.298435
O      0.051931   -3.213591    3.782931
C     -0.350285   -1.422829    0.647196
C     -0.922190   -1.586881   -0.630737
C     -0.888353   -0.473250   -1.661335
O     -0.119278    0.639638   -1.189106
C     -0.083786    1.697335   -2.034556
O     -0.647910    1.772300   -3.115007
C      0.751299    2.784583   -1.464560
C      0.822227    3.993041   -2.139253
N      1.570381    5.035309   -1.692865
C      2.254264    4.823297   -0.540785
C      3.109584    5.932630   -0.014646
C      2.181307    3.605599    0.130234
N      1.432910    2.564336   -0.305672
H     -3.623599   -4.261764   -1.927093
H     -2.068017   -4.934945   -2.556835
H     -3.121924   -3.969583   -3.594806
H     -2.079337   -4.784429   -0.209712
H     -1.080245   -4.466584    1.985257
H      1.330945   -1.131729    4.323782
H      0.296546   -0.184248    3.243421
H      1.811177   -0.941672    2.629080
H      0.129984   -0.477715    0.888840
H     -0.424140   -0.850673   -2.580640
H     -1.916164   -0.144482   -1.857970
H      0.277464    4.168111   -3.061966
H      2.997106    6.835252   -0.625505
H      2.823891    6.178661    1.012608
H      4.162162    5.636551   -0.030513
H      2.733179    3.431436    1.048918
