42

C      0.971976    1.854835    1.438471
N      0.521495    0.642855    2.135231
C     -0.221475    1.028954    3.340210
C      1.669654   -0.208928    2.503165
C      2.280969   -0.985981    1.325009
C      1.343399   -2.047423    0.748577
N      0.243822   -1.444401    0.011948
C      0.164399   -1.260812   -1.353922
C      0.970594   -1.734207   -2.302632
C      0.467193   -1.271274   -3.588121
O      0.982066   -1.516814   -4.663886
O     -0.648431   -0.525102   -3.394920
C     -0.951704   -0.461769   -1.987260
C     -0.950278    1.016076   -1.577957
C     -1.975404    1.841277   -2.364692
C     -3.223225    1.052784   -2.764368
C     -3.495680   -0.104420   -1.815088
C     -2.336345   -1.108464   -1.766610
H      0.115221    2.486661    1.178115
H      1.661380    2.451130    2.047301
H      1.468729    1.608560    0.495251
H      0.400148    1.587882    4.049188
H     -0.615659    0.142064    3.848909
H     -1.087713    1.646084    3.076516
H      2.452351    0.389651    2.987799
H      1.349582   -0.951629    3.246336
H      2.623669   -0.305753    0.537547
H      3.176546   -1.497835    1.699769
H      0.926429   -2.655486    1.559585
H      1.911748   -2.734286    0.112055
H     -0.229315   -0.721195    0.568426
H      1.847367   -2.346194   -2.209592
H     -1.179274    1.101497   -0.508713
H      0.039544    1.465143   -1.728407
H     -2.263843    2.708177   -1.757671
H     -1.510403    2.248293   -3.270996
H     -4.086876    1.726661   -2.797979
H     -3.098306    0.661785   -3.781857
H     -4.416252   -0.623425   -2.105676
H     -3.669362    0.293673   -0.807084
H     -2.509991   -1.873981   -2.534548
H     -2.388411   -1.621336   -0.798150
