33

C     -4.574600    5.257260    0.815364
C     -4.927061    4.309083   -0.132352
C     -4.020332    3.300881   -0.466924
C     -2.767888    3.254933    0.154038
C     -1.736390    2.215962   -0.139718
C     -1.912445    1.184615   -1.061695
C     -0.889402    0.249303   -1.276533
C      0.317577    0.330494   -0.577191
C      1.437007   -0.621355   -0.754690
C      2.670690   -0.643449   -0.124357
C      3.527270   -1.718848   -0.539355
C      4.837443   -2.064271   -0.128879
C      5.482347   -3.174214   -0.682817
C      4.843471   -3.948463   -1.641206
C      3.550928   -3.630167   -2.064218
C      2.906505   -2.510705   -1.502363
S      1.332528   -1.930521   -1.862544
C      0.404399    1.390070    0.320604
N     -0.568969    2.308934    0.548316
N     -2.431948    4.192156    1.084288
C     -3.324331    5.157327    1.391759
H     -5.254320    6.052609    1.097964
H     -5.901269    4.349591   -0.611495
H     -4.318365    2.571497   -1.210130
H     -2.828040    1.075308   -1.630594
H     -1.071050   -0.536982   -2.004364
H      2.977554    0.080982    0.619553
H      5.347660   -1.465033    0.621175
H      6.488605   -3.429859   -0.359749
H      5.351074   -4.810459   -2.067833
H      3.052515   -4.237377   -2.814399
H      1.291228    1.560543    0.923542
H     -2.990471    5.869922    2.140231
