40

C     -2.527101   -0.338341    3.571742
N     -1.602202   -0.245476    2.446846
C     -0.685414   -1.284374    2.206422
C     -0.649007   -2.496063    2.911987
C      0.302637   -3.481389    2.616932
C      1.235978   -3.277051    1.605308
C      1.212836   -2.089890    0.881596
C      0.257250   -1.112535    1.177070
O      0.305789    0.023199    0.399117
C     -0.725697    0.940135    0.518746
C     -0.740030    1.995222   -0.422138
C      0.273523    2.116192   -1.485726
C      1.138289    3.244588   -1.526232
C      2.112332    3.393113   -2.521485
C      2.198969    2.393821   -3.467036
C      1.365204    1.289510   -3.444290
C      0.395972    1.121866   -2.474733
C      1.729875    0.441745   -4.578770
O      1.204232   -0.612081   -4.873448
N      2.754075    1.073186   -5.215672
C      3.092068    2.246951   -4.615568
O      3.953887    3.036062   -4.944949
C     -1.765551    2.947376   -0.330556
C     -2.743754    2.847045    0.655557
C     -2.709960    1.797409    1.577089
C     -1.697077    0.828911    1.540570
H     -2.090182   -0.861097    4.429312
H     -3.444220   -0.857082    3.273013
H     -2.792471    0.645657    3.973180
H     -1.364479   -2.715988    3.697131
H      0.308512   -4.411970    3.179262
H      1.973236   -4.041759    1.376716
H      1.930494   -1.922632    0.083519
H      1.054282    4.012116   -0.756663
H      2.774161    4.252479   -2.546586
H     -0.243973    0.243674   -2.480908
H      3.206170    0.714426   -6.040927
H     -1.817180    3.768539   -1.042933
H     -3.541136    3.584752    0.704875
H     -3.507527    1.755598    2.311518
