42

C     -0.853886    0.488594    2.531031
N      0.020889   -0.044674    3.455567
C      1.150592   -0.535778    2.820917
C      1.018477   -0.323930    1.465222
C     -0.231692    0.309857    1.334162
C     -0.654819    0.660892    0.035390
C     -1.806119    1.277802   -0.437394
C     -1.618203    1.337790   -1.810563
O     -0.410632    0.767354   -2.151789
C      0.200303    0.345434   -0.994824
C      1.458959   -0.295553   -0.851480
N      2.135730   -0.511842   -2.000988
C      3.333500   -1.117886   -1.882725
C      3.906482   -1.528710   -0.677281
C      5.162162   -2.155392   -0.636692
C      5.697695   -2.549325    0.580153
C      4.956015   -2.301706    1.715272
N      3.745556   -1.700802    1.706159
C      3.205805   -1.308142    0.524908
C      1.942962   -0.671990    0.434303
C     -2.390740    1.832080   -2.928666
C     -2.273967    1.345221   -4.259089
C     -3.053551    1.818897   -5.374952
C     -4.031602    2.834109   -5.286058
C     -4.119690    3.303753   -3.983117
C     -4.942393    4.298791   -3.529585
O     -4.722833    4.495074   -2.194600
C     -3.750238    3.614952   -1.801458
C     -3.355450    2.842792   -2.865107
H     -1.797636    0.923884    2.828201
H     -0.135196   -0.075465    4.454890
H      1.939543   -0.990135    3.406061
H     -2.664682    1.619350    0.119507
H      3.846703   -1.272517   -2.829200
H      5.723334   -2.337001   -1.550193
H      6.664760   -3.034939    0.640786
H      5.321619   -2.586694    2.697748
H     -1.548207    0.553494   -4.458103
H     -2.870642    1.361096   -6.348221
H     -4.607920    3.185109   -6.129865
H     -5.687366    4.939627   -3.979133
H     -3.469562    3.688879   -0.761400
