37

O      4.671435   -0.205289    1.523584
C      3.520854   -0.116587    1.911750
O      3.148656    0.847545    2.772661
C      2.410018   -1.027945    1.550416
C      2.717230   -2.217483    0.880050
C      1.700173   -3.106553    0.522189
C      0.361842   -2.815163    0.824731
C     -0.746669   -3.753117    0.403928
S     -1.114001   -3.663940   -1.374434
C     -1.649074   -2.017298   -1.452698
N     -2.676305   -1.532463   -0.784396
N     -2.697748   -0.173345   -1.024338
C     -1.677635    0.072780   -1.819745
C     -1.175384    1.362960   -2.347801
C     -0.029928    1.911604   -1.527468
C     -0.276132    2.773349   -0.448740
C      0.780046    3.257649    0.324193
C      2.089374    2.880946    0.031997
C      2.345290    2.014049   -1.028276
C      1.291532    1.529281   -1.803906
O     -0.985319   -1.056140   -2.164414
C      0.062005   -1.616707    1.491773
C      1.078368   -0.728163    1.852775
H      3.976816    1.342606    2.940206
H      3.750075   -2.455781    0.633446
H      1.959014   -4.023482   -0.004125
H     -1.659750   -3.558283    0.978406
H     -0.451649   -4.781615    0.641880
H     -1.993015    2.093862   -2.370914
H     -0.855350    1.242242   -3.390168
H     -1.293593    3.068167   -0.199304
H      0.580732    3.925397    1.158361
H      2.910696    3.255875    0.636483
H      3.366154    1.709451   -1.246389
H      1.508714    0.843718   -2.620598
H     -0.970590   -1.355047    1.720672
H      0.818835    0.200649    2.355168
