43

C     -1.530214    3.807866    5.197679
C     -0.621010    4.926820    4.779911
C     -0.001017    4.591210    3.640445
C      0.958788    5.362585    2.880245
C      1.471978    4.841369    1.747639
C      1.039162    3.533012    1.343467
S      1.627234    2.789202   -0.067841
C      0.677242    1.381442    0.182206
C      0.617675    0.246184   -0.617074
C      1.299541   -0.154143   -1.893005
C      0.687435   -1.523944   -2.123281
C     -0.171138   -1.868862   -1.144982
C     -0.228381   -0.765130   -0.204021
N     -0.991637   -0.753702    0.886563
C     -0.931452    0.355978    1.664365
C     -0.103365    1.459917    1.349588
C      0.122745    2.719839    2.009403
C     -0.436868    3.254379    3.218158
C     -1.322139    2.788668    4.110182
C      1.066793   -2.339817   -3.265371
C      2.412559   -2.583047   -3.637724
C      2.806193   -3.383488   -4.758797
C      1.897933   -4.016402   -5.631740
C      0.573443   -3.762243   -5.276923
C     -0.482900   -4.261138   -5.998208
S     -1.983043   -3.749846   -5.337818
C     -1.212096   -2.856836   -4.085699
C      0.159437   -2.960011   -4.146268
H     -1.238585    3.406589    6.172718
H     -2.572373    4.138853    5.231249
H     -0.499258    5.850021    5.325291
H      1.250251    6.345778    3.231492
H      2.193463    5.392464    1.153368
H      2.382801   -0.207319   -1.749355
H      1.047945    0.536374   -2.703860
H     -0.728603   -2.782162   -1.022723
H     -1.565440    0.328439    2.541484
H     -1.832435    1.841328    4.096161
H      3.211519   -2.156374   -3.030063
H      3.873476   -3.511234   -4.943917
H      2.216132   -4.615794   -6.474378
H     -0.467984   -4.888827   -6.878472
H     -1.826249   -2.310144   -3.384356
