47

C      2.886675    3.693731   -1.399454
C      1.930842    3.009885   -0.468490
C      1.425934    1.918410   -1.060586
C      0.491388    0.946731   -0.598749
C     -0.216167    0.796230    0.623541
C     -0.293923    1.496910    1.832446
N     -1.099158    1.067172    2.835991
C     -1.836739   -0.055558    2.667078
C     -1.826440   -0.818361    1.502961
C     -0.990591   -0.357880    0.484943
N     -0.749013   -0.878219   -0.768617
C      0.146667   -0.099069   -1.449047
C      0.678927   -0.276072   -2.797773
C      0.396315   -1.284559   -3.723586
C     -0.438574   -2.369933   -3.638780
O     -0.395805   -3.091803   -4.802174
C      0.476106   -2.465068   -5.645650
C      0.983729   -1.355271   -5.027323
C      1.899472   -0.464404   -5.568363
C      2.200396    0.566847   -4.647290
C      1.630213    0.673936   -3.325093
C      1.996393    1.790971   -2.411856
C      2.843404    2.815478   -2.615712
C     -2.681874   -0.428569    3.801471
S     -2.033458   -0.429863    5.413546
C     -3.511559   -0.977067    6.120015
C     -4.464717   -1.147818    5.155557
C     -5.892546   -1.569042    5.090416
C     -6.151989   -1.441252    3.586735
C     -5.046863   -1.020041    2.930332
C     -3.988257   -0.834349    3.859064
H      2.550529    4.707910   -1.634259
H      3.894122    3.728087   -0.974531
H      1.708148    3.370757    0.521614
H      0.267396    2.399590    2.036887
H     -2.416935   -1.719598    1.399959
H     -1.183033   -1.718611   -1.114020
H     -1.103253   -2.781370   -2.896749
H      0.609235   -2.931228   -6.611650
H      2.337742   -0.526434   -6.554567
H      2.912935    1.323174   -4.974947
H      3.422466    3.011399   -3.504016
H     -3.584235   -1.130755    7.187313
H     -6.542229   -0.895169    5.655650
H     -6.028486   -2.602020    5.422224
H     -7.106798   -1.651297    3.128253
H     -4.978652   -0.834206    1.867871
