28

C     -0.944862    3.786841   -4.550399
C     -0.258581    3.154091   -5.563283
N      0.357287    1.976510   -5.375295
N      0.305667    1.378991   -4.138586
C     -0.354506    1.953280   -3.102326
C     -0.334310    1.205386   -1.820268
C     -0.967574    1.660810   -0.654485
C     -0.928241    0.926278    0.543661
C     -0.256259   -0.304224    0.650805
C     -0.237890   -1.049722    1.934231
C      0.402739   -2.275055    2.130678
N      0.411661   -2.947814    3.313024
C     -0.253883   -2.347863    4.319654
C     -0.896053   -1.136842    4.153807
N     -0.901818   -0.471454    2.974869
C      0.377160   -0.760112   -0.514648
C      0.337878   -0.025492   -1.713127
C     -0.992884    3.174963   -3.299103
H     -1.435117    4.737963   -4.724650
H     -0.181204    3.572903   -6.559344
H     -1.512937    2.599963   -0.634404
H     -1.442262    1.339401    1.411857
H      0.944829   -2.780233    1.340587
H     -0.257615   -2.869376    5.269547
H     -1.428953   -0.661574    4.969193
H      0.923183   -1.699274   -0.536696
H      0.853215   -0.441887   -2.579484
H     -1.532614    3.672702   -2.502736
