48

C     -3.555632   -0.817871    1.690199
C     -2.114073   -0.996212    2.052761
C     -1.344123   -0.576961    1.037532
C      0.088267   -0.395713    1.007993
C      1.081961   -0.810065    1.999122
C      2.358964   -0.481975    1.713853
Si     2.451828    0.457383    0.076258
C      0.599606    0.277051   -0.054102
C     -0.200695    0.758066   -1.194239
N      0.459248    1.499873   -2.110035
C     -0.236286    1.910045   -3.193063
C     -1.543709    1.549640   -3.500903
C     -2.123784    2.032760   -4.727861
C     -3.396893    1.681994   -5.210340
C     -3.999759    0.742933   -4.386226
C     -5.198794    0.165739   -4.726850
S     -5.629215   -1.063725   -3.614015
C     -4.198834   -0.818779   -2.692707
C     -3.454551    0.249752   -3.139959
C     -2.211912    0.691458   -2.561601
C     -1.569170    0.407582   -1.312900
C     -2.186929   -0.153471   -0.085842
C     -3.468164   -0.215497    0.317940
C      3.463607   -0.755024    2.555721
S      4.981345   -1.337526    1.915852
C      5.733951   -1.426538    3.463923
C      4.848669   -1.032012    4.416043
C      4.872064   -0.885596    5.824408
C      3.668091   -0.434286    6.243201
C      2.705716   -0.242750    5.066133
C      3.575509   -0.661027    3.925433
H     -4.085626   -1.774407    1.671488
H     -4.051316   -0.133999    2.385534
H     -1.772146   -1.328235    3.020660
H      0.777528   -1.349818    2.886566
H      3.194387   -0.312064   -0.958431
H      2.903775    1.859166    0.288871
H      0.340567    2.547307   -3.860895
H     -1.535783    2.712561   -5.349115
H     -3.795888    2.053961   -6.144588
H     -5.829626    0.363433   -5.582789
H     -3.999402   -1.501833   -1.881380
H     -4.334625    0.141640   -0.215957
H      6.757607   -1.756292    3.567800
H      5.723273   -1.100448    6.454667
H      3.401406   -0.229932    7.269281
H      2.398851    0.803402    4.981252
H      1.832882   -0.892203    5.174911
