45

C      1.283402   -2.292244    1.942604
C      1.437319   -3.350551    0.847955
C      1.139230   -2.843175   -0.368896
C      0.777749   -1.477908   -0.231419
C      0.850265   -1.113661    1.135788
C      0.507053    0.196778    1.353730
S      0.102450    0.950575   -0.154156
C      0.387618   -0.485221   -1.086691
C      0.208993   -0.485753   -2.503037
C      1.327220   -0.463307   -3.269421
C      1.293462   -0.461834   -4.731071
C      0.137541   -0.488522   -5.419537
C     -1.109632   -0.522620   -4.684256
C     -2.335487   -0.557663   -5.238580
Si    -3.657183   -0.600150   -3.913094
C     -2.303558   -0.568466   -2.625973
C     -1.083752   -0.523379   -3.200573
C      0.453386    0.935712    2.586213
C      0.747682    0.519843    3.874656
C      0.536565    1.624125    4.738088
C      0.121577    2.670420    3.942718
O      0.072080    2.253683    2.645636
C     -0.255462    4.056154    4.187701
C     -0.244702    4.599790    5.476818
C     -0.611204    5.930323    5.680701
C     -0.981361    6.686956    4.582453
N     -1.007638    6.208582    3.322528
C     -0.645266    4.909946    3.156480
H      2.239069   -2.114204    2.443479
H      0.520232   -2.593764    2.665482
H      1.742419   -4.368482    1.039600
H      1.163675   -3.381195   -1.306502
H      2.315898   -0.434560   -2.817434
H      2.245641   -0.433175   -5.251759
H      0.122717   -0.483812   -6.503282
H     -2.583825   -0.563692   -6.287474
H     -4.410225   -1.878005   -3.915482
H     -4.486919    0.628669   -3.906312
H     -2.530873   -0.581267   -1.571843
H      1.078045   -0.465834    4.166974
H      0.672962    1.645752    5.809748
H      0.046981    3.999746    6.333974
H     -0.607449    6.364933    6.674009
H     -1.274796    7.727206    4.689910
H     -0.681158    4.567802    2.124464
