44

C     -5.133948    2.064551    0.502262
C     -6.575492    1.927208    0.892924
C     -6.809356    0.675658    1.306486
C     -5.591455   -0.089714    1.227538
C     -4.584881    0.675402    0.764118
C     -3.274918    0.158299    0.592074
C     -2.698389   -1.080741    0.805210
C     -1.330924   -0.948436    0.433842
S      0.104078   -1.914717    0.359743
C      1.077376   -0.582147   -0.258142
C      0.218063    0.505402   -0.359328
C      0.686626    1.757009   -0.831414
C      0.075115    2.960995   -1.026347
N      1.066691    3.791409   -1.505779
C      2.259811    3.100041   -1.599387
C      2.042122    1.803965   -1.175721
C      2.991701    0.756908   -1.108149
C      4.330380    0.946469   -1.489303
C      5.230166   -0.103690   -1.408616
C      4.833482   -1.361216   -0.951786
C      5.812514   -2.369371   -0.902282
C      5.510293   -3.650764   -0.461450
C      4.218353   -3.934864   -0.064356
C      3.236161   -2.936586   -0.110334
C      3.484950   -1.608154   -0.551725
C      2.509815   -0.516709   -0.626184
C     -1.118016    0.327899    0.017365
N     -2.306951    1.008797    0.112971
H     -5.041099    2.335756   -0.554165
H     -4.632092    2.813548    1.123031
H     -7.304672    2.721389    0.844511
H     -7.753010    0.279286    1.649532
H     -5.538247   -1.130380    1.511035
H     -3.183629   -1.971857    1.178079
H     -0.926662    3.335122   -0.888797
H      0.942208    4.764719   -1.753631
H      3.141599    3.610663   -1.960588
H      4.685617    1.906415   -1.850711
H      6.259938    0.076528   -1.711707
H      6.835246   -2.161140   -1.211761
H      6.278617   -4.417471   -0.429559
H      3.959196   -4.931212    0.284447
H      2.255848   -3.248600    0.218800
H     -2.411283    1.980860   -0.139176
