47

Si    -3.486532   -6.524872    0.152498
C     -4.751534   -6.033172    1.433123
C     -4.576383   -4.755607    1.819923
C     -5.404834   -4.096770    2.800854
C     -5.154008   -2.819393    3.124214
C     -4.051927   -2.055496    2.507912
N     -3.959194   -0.790483    2.960384
C     -2.973106   -0.037644    2.437757
C     -2.048425   -0.458107    1.473936
C     -1.011492    0.390111    0.947405
C     -0.785555    1.738067    1.324955
C      0.246111    2.505371    0.766811
C      1.099442    1.968537   -0.198953
C      0.895140    0.636843   -0.578115
C     -0.140228   -0.138632   -0.018944
C     -0.337309   -1.453908   -0.401656
N     -1.306440   -2.256944    0.085869
C     -2.168598   -1.792060    1.015545
C     -3.188849   -2.610690    1.540357
C     -3.452699   -4.036628    1.166423
C     -2.782713   -4.800888    0.277092
C      2.175733    2.763611   -0.773384
C      3.236278    3.346351   -0.025285
C      4.305694    4.127212   -0.593212
C      4.432201    4.417087   -1.969949
C      3.386140    3.848661   -2.683221
C      3.193335    3.947871   -4.036605
N      2.033798    3.260382   -4.326314
C      1.491983    2.727968   -3.174202
C      2.322137    3.070137   -2.133175
H     -2.555203   -7.564943    0.652927
H     -4.102264   -6.801065   -1.168235
H     -5.500979   -6.726669    1.779611
H     -6.220049   -4.640130    3.265992
H     -5.757960   -2.296531    3.857536
H     -2.956430    0.968304    2.846019
H     -1.412051    2.227593    2.066089
H      0.368879    3.538380    1.088545
H      1.560002    0.193792   -1.319433
H      0.300771   -1.928755   -1.143183
H     -1.934585   -4.526848   -0.327878
H      3.256238    3.187015    1.054139
H      5.064661    4.516805    0.086194
H      5.236098    5.006090   -2.386449
H      3.753968    4.440632   -4.819083
H      1.631216    3.168388   -5.249907
H      0.567958    2.167450   -3.214318
