41

Si     1.209209    5.616308    0.164492
C      2.809851    6.584664   -0.032507
C      3.840812    5.764444   -0.301167
C      3.504947    4.349989   -0.383502
C      2.206562    4.040093   -0.171866
C      1.678901    2.720038   -0.235915
C      2.180511    1.624441   -0.919159
C      1.380552    0.480833   -0.720808
C      1.628140   -0.777942   -1.338981
N      2.631520   -0.934944   -2.191556
S      2.435642   -2.508206   -2.703234
N      1.095600   -2.933615   -1.813034
C      0.741343   -1.888630   -1.035047
C     -0.367138   -1.832888   -0.108321
C     -0.617904   -0.481839    0.348311
C     -1.840574   -0.291492    1.069613
N     -2.306261    0.869031    1.567541
S     -3.773764    0.585189    2.256575
N     -3.915425   -1.031582    1.972103
C     -2.799968   -1.429125    1.328188
C     -2.510436   -2.772862    0.933002
C     -3.498560   -3.791859    1.233476
C     -3.325171   -5.157559    0.984284
C     -2.053755   -5.409194    0.494077
C     -1.632936   -6.702243    0.296282
S      0.014770   -6.751598   -0.156650
C      0.149923   -5.040012   -0.074789
C     -1.048787   -4.409059    0.175561
C     -1.229851   -2.978094    0.285949
C      0.268385    0.611286    0.080568
S      0.241476    2.265877    0.606134
H      0.242909    5.938841   -0.915983
H      0.693479    5.708635    1.553799
H      2.839531    7.657760    0.070120
H      4.858440    6.104084   -0.451722
H      4.284690    3.629467   -0.600080
H      3.071510    1.660961   -1.535780
H     -4.442323   -3.490187    1.694046
H     -4.073519   -5.900531    1.225526
H     -2.183736   -7.623529    0.429176
H      1.135830   -4.626526   -0.206534
