33

O      4.582241    2.017450    3.590506
C      4.215389    2.065745    2.434512
N      4.727825    2.812118    1.418321
C      4.061574    2.618521    0.247477
O      4.272317    3.133459   -0.831188
C      3.007959    1.644340    0.528405
C      2.047422    1.098679   -0.303180
C      1.143578    0.170150    0.248437
C      0.096715   -0.443624   -0.582960
C      0.391421   -1.081509   -1.787130
N     -0.492135   -1.673895   -2.620997
C     -1.772212   -1.613659   -2.200421
S     -3.018827   -2.307370   -3.124822
C     -4.196883   -1.829985   -1.995292
N     -5.499317   -2.122510   -2.197808
C     -6.322023   -1.683565   -1.225571
C     -5.928074   -0.989797   -0.095357
C     -4.574762   -0.708428    0.076963
C     -3.661056   -1.142826   -0.909610
C     -2.229807   -1.017547   -1.030706
C     -1.252422   -0.416285   -0.202379
C      1.258272   -0.164409    1.627106
C      2.241217    0.402617    2.449472
C      3.102048    1.306724    1.866201
H      5.510026    3.438586    1.521523
H      1.999207    1.400176   -1.346446
H      1.421280   -1.147547   -2.136476
H     -7.372639   -1.916747   -1.385592
H     -6.660570   -0.672615    0.639374
H     -4.234955   -0.165045    0.953447
H     -1.558005    0.074225    0.718021
H      0.574508   -0.892161    2.065415
H      2.326036    0.141094    3.499465
