35

O     -1.757045    0.438440   -0.192356
C     -0.953715   -0.197158   -0.867425
C     -0.025716   -1.279466   -0.295763
O     -0.135204   -1.535794    1.093841
C      0.487820   -0.686674    1.964080
C      1.121586    0.513980    1.637032
C      1.718357    1.292283    2.636626
C      1.676163    0.864209    3.969459
N      2.303054    1.678980    5.017214
O      2.223122    1.276940    6.186870
O      2.881488    2.718952    4.670130
C      1.039538   -0.333927    4.307949
C      0.447487   -1.100339    3.300802
N     -0.778485    0.006914   -2.223970
C     -1.652934    0.883614   -2.972614
C     -2.705666    0.086578   -3.697940
C     -3.850905   -0.352572   -3.017678
C     -4.818359   -1.112440   -3.676096
C     -4.648989   -1.445063   -5.018642
C     -3.511614   -1.020423   -5.703418
C     -2.541833   -0.260694   -5.046480
H      1.013542   -1.072623   -0.580400
H     -0.300545   -2.214687   -0.798941
H      1.155339    0.887801    0.618956
H      2.200453    2.227758    2.359498
H      0.990547   -0.681852    5.337310
H     -0.055372   -2.030347    3.559219
H     -0.263844   -0.681559   -2.756276
H     -1.027619    1.429339   -3.687801
H     -2.120605    1.626949   -2.317480
H     -3.990996   -0.103097   -1.966405
H     -5.703553   -1.444624   -3.139695
H     -5.404096   -2.035653   -5.530879
H     -3.381258   -1.281026   -6.750663
H     -1.660656    0.061285   -5.596531
