29

C      0.942314   -1.575548    0.933731
N      0.200484   -0.324282    0.853575
C      0.715152    0.940982    0.550730
C      1.729774    1.304529   -0.250564
C      2.525276    0.392789   -1.107356
O      3.745062    0.398992   -0.935394
C      1.839154   -0.402290   -2.122009
C      0.526729   -0.351088   -2.560781
C      0.248442   -1.310923   -3.578181
C      1.356798   -2.061715   -3.893654
S      2.719979   -1.610266   -2.968831
S     -0.199394    2.290449    1.304055
C     -1.342499    1.092291    1.970235
C     -2.465042    1.375334    2.735794
C     -3.242568    0.311965    3.192804
C     -2.889960   -1.007270    2.880651
C     -1.754118   -1.281434    2.108944
C     -0.967262   -0.229065    1.650212
H      0.431348   -2.359768    0.364757
H      1.049751   -1.906497    1.973900
H      1.957899   -1.492056    0.540921
H      2.045743    2.339488   -0.331755
H     -0.214649    0.338807   -2.174244
H     -0.715768   -1.439835   -4.055053
H      1.435276   -2.853343   -4.626437
H     -2.732216    2.399046    2.976758
H     -4.127462    0.507358    3.794034
H     -3.507775   -1.827696    3.239427
H     -1.514288   -2.312262    1.870979
