34

C     -0.513452   -0.921889   -0.593048
N     -0.530986    0.449672   -0.972455
B     -0.491094    1.499210    0.119864
C     -0.126241    2.993031   -0.213078
C      0.570398    3.343671   -1.351421
C      0.882111    4.665963   -1.626609
C      0.504167    5.677566   -0.767541
C     -0.191318    5.316977    0.366799
C     -0.499782    3.995226    0.636458
C     -0.434256    0.938207    1.563552
C     -0.421811   -0.381113    1.813792
C     -0.461196   -1.356916    0.738359
C     -0.447342   -2.712829    1.022378
C     -0.396445   -3.169647    2.315329
C     -0.382529   -4.547537    2.598332
C     -0.419326   -5.478285    1.592499
C     -0.470530   -5.026173    0.291243
C     -0.484321   -3.675914    0.009984
C     -0.535407   -3.223305   -1.289878
C     -0.549566   -1.879993   -1.582765
H     -0.570233    0.751671   -1.973783
H      0.856535    2.535265   -2.010369
H      1.438053    4.917415   -2.540728
H      0.762288    6.699728   -1.010040
H     -0.491618    6.105581    1.046339
H     -1.050855    3.707490    1.534857
H     -0.403479    1.636026    2.400432
H     -0.382424   -0.703603    2.817885
H     -0.365801   -2.524175    3.144101
H     -0.342520   -4.895824    3.615373
H     -0.408907   -6.539930    1.802695
H     -0.500446   -5.761925   -0.525329
H     -0.564752   -3.963590   -2.091727
H     -0.589863   -1.530517   -2.608649
