24

C     -3.789425   -2.447155   -1.503374
C     -4.182686   -1.917384   -0.294993
C     -3.094249   -1.136413    0.173072
C     -2.825436   -0.347906    1.299175
C     -1.586876    0.279036    1.387729
O     -1.165332    1.074942    2.406151
C      0.102910    1.481849    2.098047
C      0.978556    2.413025    2.988464
C      0.532073    2.915591    4.192588
S      1.750765    3.895946    4.896365
C      2.760831    3.569664    3.547625
N      2.257527    2.787996    2.617728
C      0.488441    0.945609    0.884777
C     -0.598400    0.165343    0.416651
C     -0.866541   -0.622919   -0.709571
C     -2.104738   -1.249832   -0.798358
O     -2.528794   -2.046680   -1.816398
H     -4.264774   -3.094428   -2.227286
H     -5.136258   -2.075105    0.188131
H     -3.559994   -0.223892    2.087860
H     -0.421572    2.757732    4.675541
H      3.756169    3.988309    3.474277
H      1.443723    1.105679    0.404288
H     -0.132088   -0.747134   -1.498518
