40

O      1.174116    0.244900    1.227436
C      0.667778   -0.137857    0.177795
C      1.364023   -0.183075   -1.160440
S      2.953101    0.709704   -1.158778
C      3.892363   -0.348049   -0.083816
N      4.952747    0.206141    0.527193
C      5.664671   -0.598752    1.335602
C      5.369523   -1.925293    1.536324
C      4.280895   -2.399526    0.844842
N      3.531853   -1.641266    0.022477
N     -0.705839   -0.514483    0.169477
C     -1.414188   -1.281889   -0.763598
C     -2.759453   -1.258821   -0.439115
C     -2.904318   -0.553371    0.775711
C     -4.016663   -0.254972    1.591712
C     -3.841066    0.465499    2.774400
C     -2.575198    0.890466    3.150341
C     -1.459252    0.607204    2.356685
C     -1.630455   -0.127721    1.163388
C     -3.819619   -1.954911   -1.231096
C     -3.294495   -2.401572   -2.601546
C     -1.908239   -3.044610   -2.479430
C     -0.864190   -2.059282   -1.922437
H      0.741111    0.323965   -1.903025
H      1.552218   -1.208448   -1.475513
H      6.506707   -0.126910    1.833571
H      5.954665   -2.552629    2.193540
H      3.968621   -3.435908    0.934847
H     -5.010427   -0.586564    1.304672
H     -4.699154    0.693290    3.401049
H     -2.444449    1.453832    4.071374
H     -0.482123    0.960653    2.674541
H     -4.687188   -1.299607   -1.367965
H     -4.157655   -2.833644   -0.667903
H     -4.000111   -3.108496   -3.052070
H     -3.232212   -1.536322   -3.273838
H     -1.576664   -3.410548   -3.457866
H     -1.975865   -3.918925   -1.818914
H      0.012807   -2.639363   -1.619849
H     -0.578774   -1.369605   -2.723905
