36

O     -2.566651   -3.701060    0.723534
C     -2.389553   -2.613058    0.187161
C     -1.183662   -1.806168    0.346324
C     -0.069668   -2.125621    1.106960
N      0.872257   -1.096222    0.995546
C      0.344323   -0.104017    0.170390
C      1.075233    1.087919   -0.102896
C      0.764969    1.874965   -1.146094
C      1.480522    3.120541   -1.456482
C      0.744605    4.249288   -1.838257
C      1.393157    5.442698   -2.165026
C      2.784068    5.514718   -2.124193
C      3.527375    4.393241   -1.761582
C      2.879180    3.199756   -1.433719
C     -0.906340   -0.536982   -0.238500
C      2.118516   -1.160506    1.639739
C      2.431916   -2.220642    2.401452
C      1.466291   -3.290086    2.545956
C      0.272821   -3.246083    1.927483
O     -3.303334   -2.012293   -0.633526
C     -4.500939   -2.765617   -0.819384
H      1.885256    1.382414    0.557921
H     -0.053787    1.633928   -1.818497
H     -0.341790    4.211373   -1.875342
H      0.811608    6.314775   -2.452399
H      3.288646    6.442742   -2.380131
H      4.612817    4.444623   -1.739633
H      3.478595    2.330896   -1.173525
H     -1.576577    0.013034   -0.887764
H      2.811596   -0.343511    1.499310
H      3.386612   -2.300990    2.908982
H      1.733771   -4.137356    3.169902
H     -0.435208   -4.061351    2.048057
H     -4.279805   -3.729304   -1.288856
H     -5.017912   -2.907164    0.134923
H     -5.156952   -2.199436   -1.486402
