38

C     -2.006887   -0.273286   -4.804496
C     -1.707273    1.042019   -4.511346
C     -1.151267    1.005347   -3.231464
C     -1.098578   -0.278392   -2.730777
C     -0.586285   -0.606160   -1.464126
C     -0.090279    0.415304   -0.615105
C      0.451298    0.118566    0.698210
C      1.639705   -0.621965    0.920351
C      2.177759   -0.938409    2.232265
C      3.390913   -1.689152    2.391208
N      4.159354   -2.185964    1.403035
S      5.435684   -2.958101    2.126296
N      5.081134   -2.717346    3.728255
C      3.941398   -2.009354    3.765199
C      3.286302   -1.585872    4.946090
C      2.101440   -0.856498    4.774328
C      1.569513   -0.545862    3.482449
C      0.382720    0.178949    3.218272
C     -0.483570    0.711858    4.143632
N     -1.503265    1.324403    3.447668
C     -1.307865    1.180505    2.092557
C     -0.134919    0.485506    1.916228
C     -0.127979    1.748868   -1.123984
N      0.305594    2.874265   -0.512927
S      0.022863    4.147662   -1.559650
N     -0.670756    3.341257   -2.854034
C     -0.659363    2.083811   -2.438599
N     -1.638222   -1.060088   -3.732444
H     -2.449620   -0.722363   -5.683810
H     -1.873078    1.901301   -5.148093
H     -0.576499   -1.640735   -1.126767
H      2.196264   -0.970370    0.047465
H      3.684514   -1.816978    5.926696
H      1.573522   -0.516484    5.663852
H     -0.483004    0.722670    5.224595
H     -2.284139    1.809938    3.869964
H     -2.016181    1.600480    1.391166
H     -1.746232   -2.064537   -3.685902
