41

C     -6.615472   -1.202980   -3.589973
C     -7.049277   -2.392081   -3.014396
C     -6.291340   -2.991697   -2.008538
C     -5.089958   -2.410997   -1.573525
C     -4.636365   -1.220430   -2.166092
C     -5.421336   -0.618712   -3.163373
N     -3.463128   -0.571128   -1.743041
C     -2.535377   -1.045335   -0.798232
C     -1.384002   -0.280531   -0.537125
C     -0.434434   -0.668179    0.424301
C      0.766299    0.144373    0.673001
C      1.072146    0.610828    1.958560
C      2.214313    1.389162    2.196469
C      3.099892    1.727350    1.158978
C      4.311066    2.541212    1.385918
C      5.012947    2.566747    2.592298
N      6.124804    3.318687    2.802586
C      6.525488    4.055108    1.745636
C      5.851656    4.038350    0.538712
N      4.744183    3.287687    0.333096
C      2.780242    1.261588   -0.128413
C      1.639259    0.484592   -0.367951
C     -0.669755   -1.847961    1.140944
C     -1.817179   -2.610239    0.907140
C     -2.756722   -2.213519   -0.053273
S     -4.196254   -3.244882   -0.272527
H     -7.207281   -0.725917   -4.366918
H     -7.978955   -2.850713   -3.341022
H     -6.646883   -3.917153   -1.560861
H     -5.106717    0.317622   -3.616952
H     -3.126901    0.160410   -2.355122
H     -1.228069    0.646757   -1.085221
H      0.408019    0.386549    2.791704
H      2.381371    1.743641    3.211299
H      4.712580    1.964292    3.442477
H      7.410666    4.662597    1.894085
H      6.184699    4.632700   -0.304331
H      3.432381    1.501326   -0.967835
H      1.446540    0.138663   -1.381663
H      0.045054   -2.189376    1.887130
H     -1.971832   -3.519392    1.484173
