46

C      3.298203   -2.503858    4.111713
N      2.074776   -1.981531    4.478385
C      1.423010   -1.467850    3.376088
C      2.241420   -1.665729    2.290721
C      2.000366   -1.313557    0.957823
C      3.097522   -1.692354    0.138606
C      4.282764   -2.351895    0.624069
C      4.501800   -2.700746    1.976980
C      3.420198   -2.318730    2.759128
C      0.798170   -0.634680    0.480199
C      0.823892    0.763152    0.444358
C     -0.267612    1.510055    0.004523
C     -0.162259    2.893755    0.003420
N     -1.109323    3.753371   -0.384148
C     -2.271796    3.195556   -0.811402
C     -3.389587    3.988651   -1.262050
C     -3.540545    5.396386   -1.362559
C     -4.731887    5.954016   -1.834118
C     -5.783552    5.131479   -2.210231
C     -5.663713    3.742577   -2.122046
C     -4.458172    3.189830   -1.645252
S     -4.086146    1.536341   -1.452527
C     -2.487737    1.810776   -0.852183
C     -1.455879    0.871732   -0.430299
C     -1.504382   -0.591540   -0.404476
C     -2.616471   -1.380315   -0.808486
C     -2.632367   -2.778340   -0.770000
C     -1.523934   -3.461880   -0.320064
C     -0.408148   -2.740334    0.086206
C     -0.364715   -1.323056    0.056325
H      3.950368   -2.951993    4.848706
H      1.706052   -1.977348    5.420470
H      0.443534   -1.019297    3.475380
H      3.044141   -1.475601   -0.929498
H      5.059250   -2.596383   -0.101785
H      5.394553   -3.195544    2.330365
H      1.730441    1.270338    0.778192
H      0.751420    3.382843    0.338097
H     -2.716034    6.042148   -1.067867
H     -4.830480    7.034363   -1.904872
H     -6.709163    5.569118   -2.576880
H     -6.489151    3.100819   -2.417431
H     -3.527409   -0.929316   -1.175128
H     -3.516986   -3.320351   -1.093862
H     -1.519154   -4.547192   -0.281918
H      0.448383   -3.313863    0.438309
