36

C      2.709883   -1.896542   -0.610838
C      2.063255   -1.046929    0.473278
C      2.157042    0.444781    0.141836
C      1.663456    1.369877    1.271979
C      1.989285    2.834114    0.958078
N      0.239698    1.242149    1.611701
N     -0.145108    0.197541    2.490525
C     -1.420439   -0.246066    2.185020
O     -2.128622   -0.967779    2.860538
C     -1.775419    0.353716    0.901304
C     -2.866138    0.175495    0.068274
C     -3.986718   -0.749658    0.411832
C     -2.849455    0.913321   -1.118182
C     -1.765934    1.762644   -1.395694
C     -1.748822    2.550316   -2.673030
N     -0.706274    1.922275   -0.559655
C     -0.733171    1.217035    0.583515
H      3.772085   -1.654810   -0.718383
H      2.220831   -1.737239   -1.577194
H      2.627554   -2.958532   -0.359127
H      2.557671   -1.249564    1.430106
H      1.017349   -1.353145    0.571080
H      3.209940    0.684393   -0.059107
H      1.621016    0.643719   -0.793234
H      2.237546    1.123196    2.175980
H      1.628252    3.493535    1.755015
H      1.535555    3.165643    0.019166
H      3.071768    2.976620    0.869768
H      0.125385    0.258401    3.465976
H     -4.746003   -0.765746   -0.377217
H     -3.614305   -1.771809    0.533441
H     -4.476357   -0.428527    1.336651
H     -3.667202    0.832662   -1.829714
H     -0.841301    3.158599   -2.743235
H     -1.773845    1.874715   -3.533602
H     -2.612960    3.220481   -2.714985
