47

Si    -0.898800   -1.777323    3.778581
C      0.555073   -2.252303    2.726337
C      0.642741   -1.500247    1.612488
C      1.610526   -1.598143    0.560994
C      1.332437   -0.962360   -0.649113
N      2.308536   -1.320995   -1.550413
C      3.285677   -2.076802   -0.937904
C      4.482990   -2.629030   -1.467579
C      5.387421   -3.323196   -0.642095
C      4.979356   -3.344545    0.682877
C      5.718439   -3.882202    1.710263
N      5.025726   -3.648652    2.883121
C      3.855479   -2.962205    2.620380
C      3.809377   -2.820120    1.265241
C      2.873741   -2.181943    0.388482
C      0.203417   -0.056577   -0.908110
C      0.030983    0.596628   -2.133336
C     -1.030761    1.487717   -2.315152
C     -1.939073    1.754403   -1.280954
C     -1.761384    1.092746   -0.052991
C     -0.707761    0.185363    0.150119
C     -0.515457   -0.565730    1.425953
C     -1.391031   -0.560585    2.455740
C     -3.048697    2.701810   -1.475101
C     -3.965586    2.537026   -2.526530
C     -5.019525    3.436144   -2.710547
C     -5.173145    4.516780   -1.845733
C     -4.274865    4.698659   -0.797305
C     -3.222200    3.798041   -0.613824
H     -1.882441   -2.876425    3.931226
H     -0.498174   -1.111075    5.041696
H      1.186706   -3.072762    3.012391
H      2.342886   -1.035422   -2.516750
H      4.716014   -2.506238   -2.522655
H      6.311667   -3.744714   -1.012575
H      6.676252   -4.383645    1.730904
H      5.348643   -3.907179    3.805996
H      3.227863   -2.632122    3.431983
H      0.716434    0.440228   -2.959514
H     -1.134373    1.993261   -3.273626
H     -2.471466    1.288604    0.745903
H     -2.313706   -0.013029    2.547361
H     -3.870288    1.692796   -3.206476
H     -5.720854    3.289209   -3.527718
H     -5.992365    5.216497   -1.988519
H     -4.389882    5.542499   -0.122071
H     -2.524958    3.964130    0.205201
