28

C     -0.383188    3.668731    3.502521
O     -0.000291    3.540671    2.139173
C      0.105099    2.271911    1.641361
C     -0.167044    1.092352    2.333937
C     -0.019302   -0.147960    1.698991
C      0.392366   -0.223679    0.361997
C      0.683482    0.962526   -0.319757
C      0.532841    2.198975    0.314264
C      0.559235   -1.505083   -0.318444
N      1.633892   -1.877962   -0.993987
N      1.435492   -3.150004   -1.477796
C      0.230203   -3.528475   -1.120200
N     -0.386253   -2.513161   -0.400342
C     -1.700734   -2.605189    0.066435
C     -2.401199   -3.730281   -0.159302
C     -1.769525   -4.822211   -0.884563
C     -0.507933   -4.722304   -1.346959
H     -0.403002    4.735493    3.745519
H      0.345807    3.189751    4.164554
H     -1.389746    3.270739    3.668163
H     -0.486853    1.099799    3.370667
H     -0.209997   -1.053499    2.270980
H      1.032171    0.930785   -1.350676
H      0.759286    3.112568   -0.230561
H     -2.116910   -1.753349    0.588038
H     -3.426364   -3.846864    0.176891
H     -2.349982   -5.725320   -1.050196
H     -0.034779   -5.529927   -1.894024
