39

C     -4.717341    1.662194    5.879969
C     -4.996463    0.339157    6.138106
S     -4.075152   -0.657041    5.095139
C     -3.372700    0.743822    4.376109
N     -3.795992    1.892507    4.876520
C     -2.401950    0.691965    3.315571
S     -1.711079   -0.748477    2.630530
C     -0.712400    0.116977    1.495589
C      0.154905   -0.593254    0.579328
C      1.132451   -1.514050    0.968606
N      1.996792   -2.206741    0.159871
C      1.957625   -2.047070   -1.199232
C      2.875782   -2.807191   -2.002030
S      4.589041   -2.811876   -1.758531
C      4.884689   -3.884148   -3.102396
C      3.688753   -4.199352   -3.643886
C      3.137203   -4.975114   -4.675043
C      1.752338   -4.787952   -4.565552
O      1.372452   -3.937984   -3.542849
C      2.598626   -3.619219   -3.040764
C      1.024015   -1.133130   -1.749859
N      0.848939   -0.799601   -3.042121
S     -0.396674    0.287165   -3.094647
N     -0.748304    0.430373   -1.484618
C      0.091337   -0.386120   -0.821346
C     -0.942720    1.434914    1.688252
C     -0.546545    2.714162    1.215029
C     -1.256402    3.675017    1.966529
N     -2.095891    3.075578    2.900430
C     -1.850229    1.749200    2.675010
H     -5.161056    2.505416    6.396129
H     -5.675840   -0.076772    6.867218
H      1.271030   -1.739001    2.027129
H      5.885627   -4.193020   -3.366936
H      3.638860   -5.599443   -5.400122
H      0.920195   -5.187866   -5.131969
H      0.161536    2.936440    0.426875
H     -1.229005    4.755596    1.904727
H     -2.736082    3.461805    3.589468
