40

Si    -3.152542    7.431504    1.528354
C     -4.581890    6.323752    2.008181
C     -4.270888    5.026962    1.821153
C     -5.177736    3.918507    2.103851
C     -4.785274    2.647173    1.887524
C     -3.469307    2.428157    1.379165
O     -2.916208    1.208636    1.105064
C     -1.648127    1.416046    0.637443
C     -1.361157    2.778557    0.602168
C     -0.100028    3.165549    0.146837
N      0.809241    2.234450   -0.246458
C      0.494199    0.921920   -0.197672
C      1.401930   -0.051532   -0.590460
C      1.089215   -1.423691   -0.545385
C     -0.186213   -1.761300   -0.085462
N     -1.118156   -0.868833    0.315114
C     -0.742911    0.432831    0.243080
C      2.057173   -2.448789   -0.962802
C      2.707563   -2.367216   -2.205959
C      3.626353   -3.341878   -2.604961
C      3.912393   -4.415550   -1.766236
C      3.281041   -4.515373   -0.529475
C      2.361614   -3.540636   -0.131834
C     -2.531568    3.417246    1.078308
C     -2.897201    4.784274    1.289716
C     -2.171746    5.897712    1.075815
H     -2.571415    8.143258    2.691252
H     -3.456964    8.269326    0.344277
H     -5.509239    6.729787    2.379962
H     -6.168417    4.134613    2.489272
H     -5.429524    1.798939    2.085061
H      0.222612    4.197571    0.080583
H      2.384104    0.271403   -0.929336
H     -0.508574   -2.799021   -0.034012
H      2.493738   -1.543611   -2.884873
H      4.116012   -3.261797   -3.572177
H      4.627428   -5.173355   -2.075807
H      3.505482   -5.350237    0.129605
H      1.893045   -3.636063    0.846103
H     -1.166694    5.982082    0.701173
