42

C      5.668299   -3.712717    1.425452
O      4.850249   -2.684255    0.868671
C      5.451614   -1.963811   -0.122029
O      6.595746   -2.165775   -0.514775
C      4.571379   -0.928694   -0.654325
C      4.922340   -0.034292   -1.684203
C      3.889224    0.872058   -2.015640
C      3.802238    1.880387   -2.910262
S      2.240437    2.587188   -2.757267
C      1.751819    1.485806   -1.516144
C      0.450245    1.535347   -0.915193
C     -0.178486    2.643913   -0.391418
C     -1.496218    2.371788    0.119111
C     -1.821246    1.024475   -0.022783
S     -0.556384    0.162522   -0.818924
C     -3.045754    0.528429    0.449604
O     -3.360550   -0.814168    0.276604
C     -2.946261   -1.559308    1.423299
C     -3.998173    1.380420    1.043770
C     -5.314951    1.106022    1.556382
C     -5.928812    2.214177    2.087117
S     -4.942800    3.596944    1.974936
C     -3.673345    2.730015    1.183878
C     -2.448319    3.225039    0.711302
O     -2.132316    4.567440    0.883036
C     -2.535404    5.310284   -0.269108
C      2.774933    0.622009   -1.217135
S      2.941154   -0.714410   -0.014589
H      5.090832   -4.221396    2.202338
H      5.937767   -4.446067    0.658962
H      6.564065   -3.283845    1.885444
H      5.898938   -0.060315   -2.156167
H      4.527508    2.251464   -3.620857
H      0.276769    3.627249   -0.361654
H     -3.497545   -1.249147    2.317315
H     -1.868280   -1.470854    1.594894
H     -3.172952   -2.613062    1.235721
H     -5.777951    0.126776    1.533022
H     -6.909890    2.276110    2.537779
H     -2.313101    6.364762   -0.080352
H     -1.973542    5.000291   -1.156568
H     -3.611225    5.219089   -0.452485
