20

C      3.215830    2.485814    0.452272
C      2.449095    3.643048    0.545720
C      1.055917    3.591269    0.436722
C      0.451900    2.339877    0.230434
S     -1.216406    1.952748    0.057846
C     -0.814101    0.298025   -0.126746
C     -1.876259   -0.808386   -0.347913
C     -3.273652   -0.719365   -0.439001
N     -3.835954   -1.916431   -0.635195
O     -2.777181   -2.815446   -0.673786
C     -1.610714   -2.142611   -0.501069
N      0.466743    0.008855   -0.070120
C      1.200902    1.165386    0.133446
C      2.603668    1.245003    0.246753
H      4.298544    2.542894    0.539163
H      2.938541    4.601833    0.705727
H      0.459521    4.495725    0.509972
H     -3.913657    0.148901   -0.373640
H     -0.711541   -2.740465   -0.512408
H      3.199048    0.340183    0.173387
