31

C     -4.213397   -2.048292    1.481715
O     -2.814849   -2.292096    1.523027
C     -1.975421   -1.240477    1.250935
C     -2.405756    0.052306    0.936442
C     -1.475547    1.061633    0.673587
C     -0.104296    0.789805    0.722197
C      0.877118    1.881505    0.438225
N      0.459548    3.070507    0.149253
C      1.344966    4.086007   -0.114524
S      0.751174    5.626859   -0.488293
N      2.686392    3.780819   -0.057215
C      3.776673    4.604210   -0.276181
C      4.959295    3.992694   -0.140783
S      4.764739    2.316294    0.277352
C      3.019205    2.494014    0.257155
N      2.199497    1.542381    0.504204
C      0.332077   -0.504606    1.037011
C     -0.593961   -1.521203    1.301611
O     -0.254871   -2.814460    1.617466
C      1.126359   -3.140505    1.679391
H     -4.508034   -1.308878    2.233624
H     -4.723618   -2.986281    1.721151
H     -4.532002   -1.743627    0.479426
H     -3.458496    0.309965    0.886988
H     -1.833802    2.060275    0.431000
H      3.648099    5.647694   -0.533041
H      5.927418    4.457851   -0.269294
H      1.398047   -0.701740    1.071286
H      1.633381   -2.565670    2.461303
H      1.609407   -3.000468    0.706793
H      1.208265   -4.199947    1.940822
