46

C      7.666646   -3.269049   -1.739101
C      7.268150   -1.985267   -2.061739
N      6.016077   -1.529760   -1.823507
C      5.148470   -2.406893   -1.248061
C      3.781956   -1.908080   -0.993857
C      3.548069   -0.539965   -0.770422
C      2.261366   -0.044264   -0.521690
C      1.151816   -0.898318   -0.490360
C     -0.200894   -0.380854   -0.231171
C     -0.737962    0.659467   -0.999983
C     -2.036622    1.148071   -0.769086
C     -2.826702    0.622580    0.270334
C     -2.284280   -0.411872    1.055496
C     -0.996085   -0.911870    0.792354
C     -3.090767   -1.020631    2.174196
C     -4.150016   -0.049973    2.676315
C     -4.963021    0.472013    1.502118
N     -4.103337    1.110082    0.513816
C     -4.601662    2.271535   -0.211320
C     -4.082865    2.285327   -1.640598
C     -2.561065    2.266740   -1.632859
C      1.374096   -2.262584   -0.721311
C      2.662436   -2.757391   -0.970881
C      5.576043   -3.695257   -0.922370
N      6.831950   -4.156426   -1.159576
H      8.673226   -3.618385   -1.937399
H      7.948705   -1.280257   -2.525041
H      4.381822    0.161303   -0.784284
H      2.136910    1.021923   -0.342043
H     -0.147632    1.087505   -1.808425
H     -0.603460   -1.714773    1.413682
H     -2.435722   -1.293330    3.009969
H     -3.563798   -1.938718    1.805044
H     -4.803998   -0.548892    3.399860
H     -3.669832    0.789758    3.195543
H     -5.515141   -0.346958    1.025020
H     -5.706395    1.185368    1.877570
H     -5.697953    2.264277   -0.234471
H     -4.296787    3.184159    0.315319
H     -4.445009    3.174505   -2.168178
H     -4.463494    1.408269   -2.180239
H     -2.203082    2.151372   -2.662668
H     -2.173447    3.217523   -1.247254
H      0.534893   -2.956122   -0.727834
H      2.764329   -3.821916   -1.169700
H      4.920414   -4.410633   -0.438273
