38

C     -0.584676    0.703744   -2.049031
C      0.758389    0.489459   -2.796126
C      1.645776   -0.248748   -2.075023
C      0.978789   -0.546237   -0.881738
N      1.318089   -1.241808    0.235267
C      0.221855   -1.173735    1.062426
C     -0.767595   -0.432136    0.424548
Si    -2.229790   -0.357355    1.560469
C     -1.211108   -1.415702    2.817301
C     -1.749489   -1.816385    4.107083
C     -1.005435   -2.554456    4.953795
C      0.339889   -2.945481    4.564498
C      1.169969   -3.680024    5.328197
Si     2.796829   -3.957423    4.459615
C      2.145130   -2.962624    3.009121
C      0.888261   -2.531440    3.238769
C      0.040080   -1.732328    2.359539
C     -0.292528   -0.036172   -0.800064
C      0.962618    1.053202   -4.123897
N     -0.045331    1.749536   -4.653958
C      0.201849    2.238152   -5.866616
N      1.328766    2.090088   -6.557750
C      2.257006    1.377693   -5.924773
N      2.140064    0.834780   -4.716277
H     -0.767583    1.764981   -1.855585
H     -1.420194    0.257039   -2.596265
H      2.645132   -0.541675   -2.359162
H      2.193091   -1.710244    0.417924
H     -3.428377   -1.099510    1.087895
H     -2.523749    0.990644    2.114740
H     -2.755516   -1.516814    4.383618
H     -1.390324   -2.862341    5.919480
H      0.975076   -4.078484    6.310808
H      3.022551   -5.379464    4.105585
H      3.930368   -3.282187    5.136101
H      2.764818   -2.806773    2.146020
H     -0.590525    2.811391   -6.335902
H      3.197746    1.225098   -6.442679
