33

C     -5.070036    0.739572   -1.091165
C     -3.788842    0.169707   -1.679937
C     -2.779407   -0.279234   -0.622275
C     -2.235767    0.875216    0.218377
N     -1.202109    0.439051    1.137324
C     -1.409783    0.072386    2.437898
N     -0.288088   -0.263495    3.032313
C      0.685400   -0.105221    2.075510
C      2.067467   -0.322666    2.164618
C      2.884002   -0.092489    1.039500
C      4.365066   -0.333742    1.160647
C      2.308946    0.354410   -0.170399
C      3.162442    0.605506   -1.386901
C      0.920120    0.574631   -0.264576
C      0.141843    0.336458    0.874095
H     -4.883854    1.674236   -0.554209
H     -5.787259    0.954087   -1.889977
H     -5.535056    0.029326   -0.400258
H     -4.046311   -0.694631   -2.303668
H     -3.329487    0.912683   -2.342250
H     -1.948346   -0.782567   -1.132563
H     -3.238281   -1.032102    0.030992
H     -1.808121    1.659569   -0.416000
H     -3.028107    1.335376    0.818980
H     -2.389286    0.066959    2.898054
H      2.482581   -0.666840    3.105999
H      4.683383   -1.106931    0.454354
H      4.918128    0.590592    0.966412
H      4.636379   -0.674262    2.165669
H      3.904562    1.382128   -1.176831
H      2.561268    0.946197   -2.236690
H      3.670282   -0.315005   -1.691495
H      0.468191    0.915795   -1.190279
