44

C     -3.576457   -1.068427    0.586744
C     -2.412685   -1.769177    1.220000
C     -1.280652   -1.098929    0.951365
C      0.086667   -1.413170    1.359425
C      1.076513   -0.572514    0.976241
C      0.743294    0.572957    0.177823
S      1.932349    1.667637   -0.349981
C      0.784093    2.646609   -1.170857
C      1.032389    3.818100   -1.898056
C      2.320917    4.547895   -2.172855
C      1.824674    5.703516   -3.006964
C      0.496049    5.673430   -3.196412
C     -0.024214    4.501621   -2.511668
C     -1.319412    4.051131   -2.421253
C     -1.569483    2.879089   -1.693958
C     -0.525073    2.146865   -1.050016
C     -0.526017    0.940827   -0.260980
C     -1.603159    0.080290    0.134114
C     -2.925590    0.108177   -0.083170
C      0.456576   -2.567437    2.177642
C      0.696160   -2.508292    3.571518
C      1.045674   -3.646559    4.367553
C      1.188632   -4.954727    3.854798
C      0.948372   -5.006566    2.481091
C      1.027119   -6.173296    1.762019
S      0.678312   -5.904870    0.100204
C      0.424215   -4.221443    0.346427
C      0.595748   -3.868861    1.665397
H     -4.297926   -0.741671    1.341323
H     -4.073567   -1.712068   -0.144892
H     -2.494133   -2.676536    1.799601
H      2.112414   -0.749398    1.252124
H      2.782061    4.901894   -1.246548
H      3.017083    3.924320   -2.740766
H      2.481470    6.465452   -3.402266
H     -0.102311    6.377545   -3.751436
H     -2.134669    4.584421   -2.899021
H     -2.595272    2.532517   -1.629787
H     -3.481092    0.840336   -0.642226
H      0.606729   -1.544848    4.075409
H      1.208918   -3.490491    5.434716
H      1.453265   -5.800679    4.475327
H      1.268321   -7.169169    2.107187
H      0.162901   -3.595686   -0.496247
