41

C      0.174092   -2.370261   -0.346094
C      1.140277   -3.448295   -0.839354
C      2.293943   -2.905371   -1.286209
C      2.233494   -1.493917   -1.149183
C      0.977715   -1.134074   -0.594734
C      0.828909    0.225321   -0.439050
S      2.271959    1.022287   -0.997924
C      3.065033   -0.448191   -1.426090
C      4.386815   -0.459920   -1.970862
S      4.803524    0.304261   -3.461795
C      6.451741   -0.187779   -3.368590
C      6.610143   -0.894456   -2.227773
C      7.724811   -1.529620   -1.630363
C      7.400613   -2.142955   -0.414924
S      5.727409   -2.003024    0.108729
C      5.484875   -1.067373   -1.420632
C     -0.278383    0.995055    0.080733
N     -0.262057    2.310822    0.136744
C     -1.445535    2.778690    0.675771
C     -2.377145    1.821538    1.037139
S     -1.720691    0.276069    0.676509
C     -3.683539    2.006816    1.615409
S     -4.341581    3.602135    1.920427
C     -5.830704    3.006300    2.570720
C     -5.783425    1.661190    2.537672
N     -6.759627    0.806905    2.960554
C     -6.173850   -0.426397    2.692214
C     -4.889202   -0.277621    2.127557
C     -4.625231    1.118501    2.022328
H     -0.746871   -2.384588   -0.935544
H     -0.043289   -2.510028    0.716461
H      0.913445   -4.504012   -0.826189
H      3.135780   -3.452088   -1.688066
H      7.166059    0.074344   -4.136063
H      8.726140   -1.550669   -2.042909
H      8.072693   -2.688425    0.233628
H     -1.569930    3.849862    0.781629
H     -6.616236    3.659941    2.922836
H     -7.661321    1.037213    3.360077
H     -6.722076   -1.330087    2.926683
H     -4.246129   -1.097788    1.838460
