37

Si    -0.000644   -4.837052   -0.474089
C     -0.101455   -5.484873    1.280164
C      0.090680   -4.489159    2.164879
C      0.081926   -4.637873    3.605830
C      0.293852   -3.550345    4.370221
C      0.529666   -2.228141    3.792518
C      0.544374   -2.002835    2.457239
C      0.794715   -0.635521    1.999293
C      2.089159   -0.044292    1.951045
C      2.247549    1.284648    1.480971
N      3.349090    2.097184    1.323668
C      2.940645    3.324445    0.815435
C      3.554044    4.550530    0.441479
C      2.595524    5.432688   -0.011740
S      0.990335    4.810605    0.007379
C      1.577390    3.315943    0.639350
C      1.182842    2.047710    1.057625
C     -0.123106    1.525034    1.076297
C     -1.339924    2.016514    0.731340
O     -2.262468    1.026513    0.974317
C     -1.584065   -0.063440    1.469304
C     -0.236364    0.204934    1.548920
C      0.328560   -3.150797    1.571050
C      0.321140   -3.132045    0.222674
H      1.167841   -5.382021   -1.207095
H     -1.300271   -4.928949   -1.182087
H     -0.288928   -6.525308    1.490562
H     -0.093436   -5.613458    4.044190
H      0.292423   -3.628219    5.453065
H      0.686005   -1.418258    4.501032
H      2.955666   -0.618826    2.270156
H      4.313157    1.872181    1.532378
H      4.611257    4.774701    0.497372
H      2.753621    6.442575   -0.365401
H     -1.729882    2.942865    0.336387
H     -2.200845   -0.919914    1.704134
H      0.470705   -2.281180   -0.422975
