43

C     -0.186717   -1.019864   -7.836931
C      0.698571   -1.750441   -6.823216
C      0.516512   -1.268352   -5.572579
C     -0.450788   -0.229496   -5.604783
C     -0.884678   -0.054592   -6.940795
C     -1.813419    0.940633   -7.064354
S     -2.140959    1.650403   -5.524058
C     -1.025562    0.612227   -4.692392
C     -0.853864    0.716770   -3.245732
C     -0.922308   -0.414671   -2.429774
C     -0.744000   -0.293132   -1.050974
C     -0.492808    0.965725   -0.515664
N     -0.422991    2.081895   -1.277571
C     -0.603110    1.931804   -2.613688
C     -0.294969    1.176957    0.908021
S     -1.195688    2.342893    1.795455
C     -0.424459    1.963786    3.294496
C     -0.767939    2.626042    4.514885
S     -1.035893    4.337134    4.671286
C     -1.360398    4.247837    6.378727
C     -1.258380    2.953483    6.744725
C     -1.383144    2.143014    7.883059
C     -1.124589    0.843474    7.429397
O     -0.839714    0.759312    6.078926
C     -0.937160    2.075909    5.736641
C      0.484235    0.985342    3.045251
C      1.435063    0.292038    3.844522
C      2.183296   -0.638729    3.117243
S      1.822003   -0.758430    1.405098
C      0.587124    0.527478    1.727916
H     -0.885906   -1.712564   -8.313301
H      0.422100   -0.510373   -8.588873
H      1.381589   -2.542610   -7.091719
H      1.030399   -1.608154   -4.684322
H     -2.318027    1.296754   -7.951525
H     -1.128525   -1.393292   -2.856096
H     -0.813413   -1.169756   -0.415441
H     -0.525030    2.857173   -3.179073
H     -1.597788    5.130660    6.954894
H     -1.628753    2.426072    8.896446
H     -1.108493   -0.111111    7.939361
H      1.586023    0.449186    4.905754
H      2.960977   -1.283440    3.503669
