30

Cl    -0.039456    5.204308   -1.057990
C     -0.611926    3.806724   -0.232843
C     -1.032191    3.908615    1.091437
C     -1.494900    2.773891    1.761975
C     -1.543521    1.531360    1.110442
C     -2.031919    0.299553    1.836961
S     -0.759701   -0.442179    2.895516
C      0.163978   -1.356362    1.733135
C      1.477961   -1.759396    1.905872
N      1.745584   -2.432255    0.775589
C      0.649118   -2.431473   -0.027473
N     -0.348350   -1.790222    0.521863
C      0.905519   -3.153979   -1.287246
C      2.452681   -3.259866   -1.273294
C      2.876673   -3.125673    0.202101
C     -1.111842    1.446596   -0.221802
C     -0.648837    2.580677   -0.892373
H     -0.998933    4.863688    1.608153
H     -1.812673    2.861499    2.799020
H     -2.442993   -0.434520    1.134975
H     -2.871773    0.586410    2.481196
H      2.184585   -1.613699    2.709661
H      0.448655   -4.148132   -1.259343
H      0.548604   -2.612999   -2.167193
H      2.813941   -4.185079   -1.732263
H      2.874305   -2.423281   -1.846117
H      2.961333   -4.096168    0.699207
H      3.782314   -2.529387    0.333901
H     -1.126752    0.488866   -0.740076
H     -0.316417    2.497381   -1.923090
