30

C      0.473435   -2.940807   -0.214278
C      0.878857   -4.256484   -0.161749
C      1.240967   -4.765904    1.091508
C      1.194232   -3.967428    2.257627
C      0.783609   -2.630973    2.211462
C      0.427293   -2.128359    0.980667
C     -0.034135   -0.808546    0.599066
N     -0.318845    0.385931    1.052519
C     -0.726447    1.098813   -0.105533
C     -1.164968    2.598449   -0.023606
C     -1.179306    3.300811    1.163056
C     -1.614391    4.647072    0.987706
C     -1.915803    4.920620   -0.328164
S     -1.672888    3.558861   -1.335924
C     -0.675527    0.301609   -1.244151
N     -0.237730   -0.867088   -0.730685
C      0.027863   -2.077722   -1.328282
C     -0.172962   -2.142983   -2.653605
C     -0.655495   -0.909310   -3.318178
C     -0.895247    0.253579   -2.651815
H      0.918346   -4.877261   -1.049411
H      1.566856   -5.801568    1.173374
H      1.484564   -4.403761    3.211847
H      0.746974   -2.016676    3.104468
H     -0.889878    2.864690    2.112292
H     -1.700804    5.374044    1.785718
H     -2.266821    5.853087   -0.748156
H     -0.000868   -3.037085   -3.239472
H     -0.817101   -0.965680   -4.391588
H     -1.248236    1.132995   -3.179703
