44

C      1.512963    3.935732    5.252409
C      2.079538    3.351087    6.393201
C      2.122965    1.976895    6.111153
C      2.510789    0.809859    6.668465
S      2.179598   -0.459782    5.519347
C      1.507736    0.628210    4.352370
C      1.021098    0.220177    3.058408
C      1.687526    0.532723    1.856673
C      1.247480    0.138914    0.553742
C      2.021779    0.522052   -0.529228
C      1.666216    0.176414   -1.832908
C      0.504361   -0.579791   -2.116136
C     -0.300302   -0.979476   -1.025159
S     -1.661366   -1.892865   -1.601023
C     -1.229871   -1.778252   -3.248329
C     -1.929727   -2.325497   -4.368791
C     -1.473434   -2.164474   -5.688500
C     -0.301874   -1.431994   -5.735658
C      0.365322   -1.122989   -6.897063
N      1.481657   -0.387336   -6.550038
C      1.538101   -0.220996   -5.178340
C      0.440433   -0.864682   -4.684370
C     -0.057616   -1.049704   -3.341034
C      0.052976   -0.628380    0.314558
C     -0.630017   -0.930296    1.526425
C     -1.809263   -1.630692    1.653639
S     -2.341018   -1.777049    3.279837
C     -0.998281   -0.897208    3.862799
C     -0.153547   -0.514350    2.844825
C      1.584191    1.877356    4.851075
O      1.188640    3.035531    4.253292
H      1.280655    4.963581    5.005264
H      2.403175    3.874147    7.281403
H      2.958982    0.597508    7.628506
H      2.607733    1.115969    1.938619
H      2.930329    1.105171   -0.386409
H      2.316624    0.508573   -2.633717
H     -2.847059   -2.885988   -4.195477
H     -1.992837   -2.572848   -6.544307
H      0.160945   -1.350475   -7.934621
H      2.160485   -0.022424   -7.205616
H      2.352392    0.333524   -4.740672
H     -2.439880   -2.085539    0.910057
H     -0.914089   -0.714143    4.924896
