41

C     -4.633045   -0.350166    0.699340
C     -3.220142   -0.713783    0.355762
C     -2.897782   -2.015503    0.005810
C     -1.572636   -2.335287   -0.310575
C     -1.268990   -3.752788   -0.707896
C     -0.605785   -1.311410   -0.229110
S      1.127670   -1.652180   -0.452998
O      1.438954   -1.237910   -1.809598
O      1.361289   -3.035776   -0.065929
C      2.111890   -0.727940    0.729299
C      1.783893   -0.922203    2.084761
C      2.484936   -0.251033    3.083905
C      3.520845    0.609344    2.738677
C      3.863789    0.790091    1.396774
C      3.175972    0.119294    0.368440
C      3.619996    0.351067   -1.046678
C     -1.008760   -0.007314    0.080801
N     -0.111390    1.079046    0.028629
C     -0.186976    1.704091   -1.299159
C     -0.354646    2.036992    1.113519
N     -2.301436    0.274800    0.384400
H     -5.288367   -0.528244   -0.158877
H     -4.707858    0.707384    0.972458
H     -4.981599   -0.946098    1.548555
H     -3.674840   -2.774958   -0.023241
H     -2.180367   -4.279351   -1.013929
H     -0.596845   -3.784577   -1.570924
H     -0.837841   -4.303046    0.133462
H      0.982359   -1.601161    2.368359
H      2.225754   -0.402452    4.128445
H      4.072366    1.135380    3.513981
H      4.686931    1.461392    1.157237
H      4.517133    0.979247   -1.086266
H      2.842847    0.870571   -1.614312
H      3.881988   -0.595659   -1.528650
H      0.572171    2.490319   -1.377308
H      0.013144    0.984837   -2.100273
H     -1.167542    2.161409   -1.479649
H     -1.298996    2.580663    0.990451
H     -0.354135    1.537418    2.089291
H      0.454796    2.775364    1.132080
