38

C     -3.894143   -0.902348    1.627365
C     -3.878672   -0.627287    0.149148
C     -2.609842   -0.552006   -0.287847
C     -2.102406   -0.309026   -1.653329
C     -0.753702   -0.295105   -1.838831
C      0.070112   -0.523066   -0.700028
N      1.432080   -0.538921   -0.749484
C      1.941753   -0.780710    0.514922
C      3.281246   -0.880777    0.926217
C      3.486050   -1.132463    2.273905
C      4.739868   -1.287773    2.993957
C      4.445165   -1.519627    4.283130
C      2.958558   -1.540742    4.544842
C      2.423818   -1.277972    3.169765
C      1.098544   -1.178928    2.762516
C      0.849983   -0.922867    1.395543
C     -0.315359   -0.756404    0.606414
C     -1.712067   -0.778734    0.858022
C     -2.433650   -0.978825    1.967079
C     -2.934443   -0.044692   -2.785990
C     -3.847130    0.978668   -2.990485
N     -4.533160    0.964117   -4.190247
C     -4.146252   -0.077676   -4.890121
S     -2.959542   -1.080016   -4.168934
H     -4.398241   -1.848574    1.844917
H     -4.383240   -0.089928    2.172788
H     -4.770023   -0.519231   -0.449974
H     -0.304277   -0.103568   -2.808147
H      1.997635   -0.397847   -1.574253
H      4.105198   -0.768171    0.232302
H      5.717882   -1.223158    2.546037
H      5.180168   -1.675923    5.059795
H      2.641004   -2.519185    4.916199
H      2.673228   -0.747982    5.242134
H      0.287805   -1.294559    3.471426
H     -2.049925   -1.172747    2.954983
H     -4.048788    1.773760   -2.281890
H     -4.551809   -0.297487   -5.869040
