24

F     -4.541495    0.537638    4.194454
C     -3.560241    0.639155    3.288914
C     -2.945516   -0.513513    2.814221
C     -1.921105   -0.410891    1.869398
C     -1.520109    0.846301    1.390734
C     -2.141365    1.997804    1.899622
C     -3.165496    1.894229    2.843556
C     -0.445126    0.987508    0.411028
N      0.579552    1.817180    0.520283
N      1.395297    1.662971   -0.575666
C      0.844825    0.764301   -1.358681
N     -0.343377    0.315960   -0.795850
C     -1.182909   -0.603737   -1.431189
C     -0.823322   -1.106680   -2.625017
C      0.432088   -0.678455   -3.223032
C      1.229622    0.221296   -2.615052
H     -3.259334   -1.481977    3.191070
H     -1.427032   -1.318881    1.530802
H     -1.823706    2.983508    1.561944
H     -3.648972    2.783041    3.236395
H     -2.109159   -0.872942   -0.941050
H     -1.444013   -1.817959   -3.160323
H      0.708094   -1.102697   -4.184231
H      2.162664    0.549171   -3.059374
