39

C      3.273060   -2.502246   -2.877798
C      4.748021   -2.178195   -2.897378
C      5.074117   -1.195290   -2.044328
C      3.855646   -0.771518   -1.377611
C      3.682711    0.207505   -0.418556
C      2.394598    0.437365    0.080835
C      1.274748   -0.301679   -0.368312
C     -0.019486   -0.060031    0.143152
C     -0.459236    0.940915    1.180949
C     -1.973986    0.691756    1.278524
C     -2.346882   -0.292145    0.435044
C     -1.166528   -0.756514   -0.260216
C     -1.054946   -1.762078   -1.230398
N     -2.032863   -2.529383   -1.737372
S     -1.308171   -3.534412   -2.841664
N      0.272447   -3.043484   -2.726992
C      0.312138   -2.059216   -1.810021
C      1.476027   -1.315226   -1.365938
C      2.775779   -1.526875   -1.850768
C     -2.907104    1.374723    2.124495
S     -2.311889    2.638555    3.177963
C     -3.850239    2.986617    3.842860
C     -4.796632    2.177049    3.292726
S     -6.569626    2.095321    3.606725
C     -6.564906    0.817826    2.408916
C     -5.323994    0.504184    1.841766
C     -4.252073    1.298879    2.349910
H      2.828015   -2.315925   -3.859335
H      3.113483   -3.536985   -2.561499
H      5.451360   -2.693015   -3.536558
H      6.052195   -0.778488   -1.867417
H      4.524550    0.789229   -0.056417
H      2.275702    1.212419    0.836054
H     -0.254730    1.961358    0.840943
H      0.029831    0.739961    2.139681
H     -3.318861   -0.713460    0.251340
H     -4.003628    3.750595    4.592516
H     -7.513693    0.351154    2.180789
H     -5.236528   -0.272470    1.095190
