45

C      2.453936   -0.940647    1.704995
C      1.175405   -0.575902    2.412091
C      0.340244    0.485042    1.809792
C     -0.342720    0.297636    0.579037
C     -0.340702   -0.920120   -0.149152
C     -1.026668   -1.084955   -1.358954
N     -0.967886   -2.245379   -2.136951
C     -0.624527   -3.537985   -1.544432
C      0.867006   -3.766516   -1.426613
C      1.770138   -3.259617   -2.373093
C      3.139252   -3.506950   -2.256556
C      3.622206   -4.275685   -1.199977
C      2.736863   -4.800563   -0.261247
C      1.367482   -4.552517   -0.376115
C     -1.692268    0.029074   -1.876757
C     -1.740952    1.238557   -1.178424
C     -1.085100    1.387413    0.048674
C     -1.163386    2.607413    0.743694
C     -0.500787    2.747220    1.950996
C      0.247704    1.698579    2.483705
C      0.829080    2.086844    3.809782
C      0.712100    3.616599    3.754204
C     -0.498478    3.931266    2.866241
O      0.836699   -1.089928    3.474021
H      2.438069   -2.003908    1.454679
H      3.298149   -0.726645    2.366067
H      2.584477   -0.363316    0.785663
H      0.212288   -1.761652    0.254536
H     -1.769804   -2.319041   -2.756911
H     -1.018980   -4.327090   -2.196719
H     -1.124258   -3.657178   -0.574880
H      1.407437   -2.655631   -3.202614
H      3.826980   -3.098472   -2.992239
H      4.687972   -4.468002   -1.110183
H      3.112110   -5.403671    0.561607
H      0.692400   -4.972844    0.366612
H     -2.193532   -0.034356   -2.839694
H     -2.294582    2.068006   -1.613382
H     -1.743671    3.437473    0.348711
H      1.871859    1.777622    3.923433
H      0.222480    1.673969    4.622388
H      1.617391    4.029189    3.287140
H      0.629936    4.066166    4.748660
H     -0.366151    4.875419    2.330622
H     -1.423543    3.956881    3.451231
