31

O      4.178146    0.799307    2.876916
C      3.852559   -0.040086    2.053657
C      2.693821    0.126084    1.134455
C      2.346056   -0.836887    0.181101
C      1.243789   -0.636806   -0.666303
C      0.942208   -1.662438   -1.629158
N      0.757676   -2.513858   -2.396527
C      1.932980    1.296377    1.236161
C      0.828662    1.509163    0.396341
C      0.090623    2.734343    0.550353
N     -0.460829    3.744919    0.700193
C      0.471931    0.540259   -0.565141
C     -0.686451    0.751816   -1.446139
C     -0.575566    1.396964   -2.638714
N     -1.835952    1.385121   -3.132280
C     -2.625184    1.771577   -4.192256
C     -3.997624    1.338688   -3.920328
C     -3.973073    0.666279   -2.622448
N     -2.681672    0.701888   -2.167258
N     -1.908517    0.268389   -1.018623
O      4.466951   -1.228048    1.838121
C      5.591667   -1.462607    2.688058
H      2.928208   -1.753411    0.087752
H      2.200767    2.050536    1.978127
H      0.267141    1.840519   -3.143082
H     -2.209023    2.299965   -5.033271
H     -4.856806    1.488649   -4.555163
H     -4.744932    0.199331   -2.039926
H      5.281863   -1.478943    3.737688
H      6.009062   -2.441001    2.434658
H      6.362140   -0.703179    2.521939
