42

Si    -1.175740   -0.601495   -3.559286
C     -0.803882   -0.750181   -1.694327
C      0.063356   -1.741755   -1.399723
C      0.499948   -2.464964   -2.584539
C     -0.004784   -2.065052   -3.860558
C      0.341616   -2.686936   -5.104468
C      1.238634   -3.783576   -5.191021
C      1.716294   -4.153825   -3.933316
C      2.592834   -5.163014   -3.638905
O      2.808118   -5.201049   -2.285748
C      2.058966   -4.204279   -1.715881
C      1.372316   -3.535372   -2.692483
C     -1.411858    0.161302   -0.731043
C     -2.770195    0.087863   -0.436615
C     -3.327668    0.961709    0.494972
C     -2.539975    1.919366    1.153725
C     -3.136355    2.777954    2.080393
C     -2.383483    3.736306    2.752670
C     -1.012146    3.863625    2.518471
C     -0.280711    4.841419    3.214363
C      1.087037    4.998501    3.008207
C      1.739870    4.177672    2.101868
C      1.023047    3.201180    1.403403
C     -0.370538    3.009349    1.584789
C     -1.150532    2.017446    0.888157
C     -0.619741    1.110130   -0.065572
H     -2.586202   -0.940075   -3.883592
H     -0.654212    0.657214   -4.151364
H      0.408583   -1.992827   -0.406435
H     -0.097171   -2.308333   -6.028047
H      1.505067   -4.258051   -6.125329
H      3.128371   -5.903569   -4.215384
H      2.135955   -4.122065   -0.641343
H     -3.406042   -0.652156   -0.916604
H     -4.392198    0.883694    0.707426
H     -4.201457    2.710571    2.292293
H     -2.885268    4.385911    3.466845
H     -0.776754    5.494423    3.929719
H      1.637963    5.759137    3.554368
H      2.807532    4.291210    1.932986
H      1.583989    2.585767    0.705900
H      0.439154    1.135772   -0.309366
