48

C     -2.387732   -1.604309   -2.339293
C     -1.678431   -0.292176   -2.451863
C     -1.009001   -0.054191   -1.315874
C     -0.127777    1.001544   -0.974873
C      0.085178    2.222858   -1.667971
C      0.929087    3.062488   -0.970798
S      1.414323    2.361717    0.511341
C      0.627584    0.873539    0.183238
C      0.578578   -0.304200    1.120573
C      1.538350   -0.584092    2.135974
C      2.848269   -0.031675    2.150370
C      3.774254   -0.288021    3.159864
C      3.428639   -1.133255    4.191038
C      2.171931   -1.736564    4.185026
C      1.205014   -1.507844    3.166662
C     -0.072247   -2.168143    3.158744
C     -0.512128   -3.023753    4.200849
C     -1.756215   -3.629732    4.150148
N     -2.619879   -3.445110    3.147485
C     -2.201803   -2.630178    2.151913
C     -0.948863   -1.989778    2.063189
C     -0.561471   -1.156627    0.983142
C     -1.244643   -1.126875   -0.349088
C     -1.998679   -2.060277   -0.961852
C      1.340191    4.380678   -1.348326
S      2.996984    4.892179   -1.452590
C      2.585540    6.492893   -1.995052
C      1.241103    6.565789   -2.061178
C      0.200462    7.470369   -2.382700
C     -1.017808    6.785874   -2.183642
N     -0.808553    5.479127   -1.746321
C      0.556917    5.423621   -1.707644
H     -3.471241   -1.481956   -2.424788
H     -2.033881   -2.307750   -3.098736
H     -1.673564    0.321154   -3.339306
H     -0.370868    2.486631   -2.614280
H      3.201666    0.584520    1.328449
H      4.760952    0.165508    3.123552
H      4.135637   -1.346928    4.987876
H      1.973183   -2.418153    5.006964
H      0.093420   -3.227646    5.075846
H     -2.094698   -4.284935    4.947344
H     -2.976713   -2.463269    1.410234
H     -2.271900   -3.033604   -0.584401
H      3.344258    7.231143   -2.209693
H      0.294074    8.496551   -2.712687
H     -2.033589    7.136771   -2.314612
H     -1.467361    4.750468   -1.498724
