49

C     -5.363330   -1.493095   -2.667048
C     -4.961448   -2.519341   -3.681536
C     -3.634260   -2.693222   -3.626312
C     -2.848121   -3.688975   -4.297857
C     -1.563743   -3.842327   -3.933966
C     -0.926856   -2.959810   -2.920530
C      0.363061   -3.260260   -2.501460
C      1.012751   -2.448370   -1.566623
C      0.476132   -1.234491   -1.081225
C      1.227177   -0.408393   -0.109656
C      2.419476   -0.811122    0.516398
N      3.154857   -0.105255    1.418962
C      2.717792    1.121090    1.775032
C      1.557162    1.652901    1.240002
C      0.815115    0.888817    0.302265
C     -0.359562    1.310949   -0.365508
C     -0.892384    2.574749   -0.228343
S     -2.210387    2.831063   -1.289468
C     -2.065256    1.251011   -1.933915
C     -1.120995    0.489828   -1.278342
C     -0.816544   -0.869756   -1.614411
C     -1.577650   -1.811996   -2.396400
C     -3.041003   -1.773586   -2.657251
C     -4.048057   -1.132671   -2.036976
C      3.576937    1.806455    2.753927
S      3.217836    3.401957    3.352190
C      4.607150    3.460116    4.372988
C      5.303063    2.299642    4.247387
C      6.488285    1.758379    4.801996
C      6.694372    0.524298    4.288132
C      5.589084    0.141031    3.295430
C      4.739549    1.367819    3.347039
H     -6.046197   -1.921276   -1.927303
H     -5.828377   -0.623377   -3.139920
H     -5.654484   -3.082804   -4.286864
H     -3.309446   -4.331977   -5.038318
H     -0.954042   -4.611523   -4.396676
H      0.874021   -4.146726   -2.871105
H      2.002802   -2.784329   -1.267886
H      2.859007   -1.785627    0.324975
H      1.219257    2.639166    1.530480
H     -0.569044    3.394578    0.396615
H     -2.695122    0.987254   -2.770499
H     -3.968815   -0.470406   -1.189207
H      4.815142    4.326125    4.984837
H      7.120743    2.259326    5.520841
H      7.522946   -0.123449    4.531731
H      5.050181   -0.745049    3.642212
H      6.007355   -0.025758    2.298915
