34

Si     0.119282    0.008075   -1.070349
C      0.998211   -1.636155   -0.739003
C      1.409254   -1.697848    0.547053
C      1.087986   -0.513879    1.358642
N      1.458633   -0.486507    2.651655
C      1.129432    0.633599    3.335094
C      0.446148    1.716441    2.765611
C      0.111340    2.870714    3.485236
O      0.367804    3.148986    4.795434
C     -0.148063    4.385905    5.037193
C     -0.731141    4.904387    3.901880
C     -0.566405    3.928627    2.894608
N     -0.953926    3.933379    1.595915
C     -0.623362    2.808594    0.909257
C      0.061296    1.681990    1.413276
C      0.401521    0.521122    0.701666
C      1.141787   -2.612504   -1.816378
N      0.628762   -2.309813   -3.055702
C      0.725559   -3.175568   -4.112986
C      1.319764   -4.429786   -4.120331
C      1.863915   -4.795005   -2.876438
N      2.490750   -5.954829   -2.623496
S      2.943158   -5.907694   -1.029298
N      2.366165   -4.419289   -0.590420
C      1.784861   -3.877752   -1.677410
H      0.853233    0.908510   -1.996683
H     -1.333868   -0.129700   -1.347728
H      1.937142   -2.515029    1.018751
H      1.434471    0.643126    4.378432
H     -0.022563    4.752250    6.046990
H     -1.215525    5.864391    3.806420
H     -0.946985    2.841059   -0.129608
H      0.272115   -2.795551   -5.028789
H      1.361634   -5.064702   -4.993346
