41

C      3.195276   -1.426580    4.038801
N      3.896047   -1.208792    2.774636
C      5.220418   -1.820320    2.675222
C      3.147572   -1.024683    1.602458
C      3.756833   -1.033677    0.322301
C      3.041255   -0.836886   -0.870760
C      1.682659   -0.613600   -0.796862
C      0.704703   -0.379673   -1.836290
C      0.851761   -0.320581   -3.212236
C     -0.280828   -0.075441   -4.000153
C     -1.549940    0.108692   -3.410041
C     -2.772075    0.370376   -4.220172
C     -2.654996    0.442555   -5.660970
C     -2.579945    0.506527   -6.858716
O     -3.870972    0.525756   -3.704265
C     -1.689761    0.047302   -2.014502
C     -0.561525   -0.196094   -1.241535
C     -0.450481   -0.307996    0.281914
C     -1.288153   -1.478508    0.809018
C     -0.852847    1.006765    0.959526
C      1.045911   -0.581038    0.455097
C      1.761363   -0.776487    1.635902
H      2.563441   -0.569453    4.295447
H      2.586102   -2.336373    4.000071
H      3.901390   -1.535874    4.869766
H      5.164114   -2.810211    2.208974
H      5.909057   -1.184030    2.109361
H      5.675618   -1.948100    3.663935
H      4.826888   -1.189798    0.221878
H      3.560613   -0.856454   -1.822499
H      1.821714   -0.460196   -3.678962
H     -0.151338   -0.031649   -5.078649
H     -2.529090    0.566205   -7.921227
H     -2.660874    0.187561   -1.546470
H     -1.157798   -1.607909    1.889603
H     -1.008025   -2.424702    0.329917
H     -2.356551   -1.320759    0.621716
H     -0.709209    0.956774    2.045001
H     -0.258653    1.851256    0.589321
H     -1.907281    1.243547    0.776428
H      1.218182   -0.730892    2.572533
