36

N      0.269143    2.740537    0.221599
C      0.412629    1.374478    0.238315
N     -0.529100    0.467913   -0.130032
C      0.019903   -0.720760    0.082016
C     -0.671799   -1.993157   -0.140147
C     -0.656137   -3.019001    0.815503
C     -1.337081   -4.217155    0.580656
C     -2.051336   -4.389885   -0.607713
C     -2.775372   -5.651206   -0.862141
O     -2.751318   -6.585091   -0.070306
C     -2.094584   -3.369722   -1.559512
C     -1.409921   -2.174681   -1.319636
N      1.331696   -0.568759    0.506405
C      1.561256    0.774574    0.647954
C      2.696874    1.503490    1.099343
N      2.511629    2.888156    1.043898
C      1.330404    3.543349    0.639644
O      1.248046    4.774970    0.660668
C      3.600777    3.740457    1.479725
O      3.720796    0.959011    1.501301
C      2.314295   -1.608314    0.705343
C     -0.982758    3.335920   -0.209012
H     -0.133354   -2.890883    1.760504
H     -1.318798   -5.007182    1.329234
H     -3.340017   -5.714237   -1.807457
H     -2.656462   -3.484417   -2.482711
H     -1.455214   -1.373402   -2.056337
H      3.812419    4.483159    0.703473
H      3.291235    4.267757    2.388023
H      4.514945    3.179164    1.688282
H      2.361116   -1.835237    1.772941
H      2.039995   -2.497729    0.134531
H      3.284666   -1.261748    0.341978
H     -0.940213    4.428146   -0.198128
H     -1.204765    3.005750   -1.228803
H     -1.782027    3.010259    0.464266
