41

C      2.230124   -6.876868   -0.151392
C      1.942445   -6.276834    1.226995
C      1.515641   -4.997192    1.127908
C      1.468438   -4.618761   -0.240815
C      1.895239   -5.717823   -1.026550
C      1.896902   -5.437767   -2.364180
S      1.369878   -3.816652   -2.637758
C      1.138964   -3.492998   -0.946980
C      0.649208   -2.228714   -0.461521
C     -0.273775   -2.031383    0.537147
C     -0.542220   -0.645285    0.802463
C     -1.425701   -0.088754    1.746504
C     -1.560284    1.294310    1.868938
C     -0.843168    2.197223    1.078815
C     -1.060278    3.606549    1.290817
N     -1.939071    4.018343    2.236396
C     -2.154054    5.338160    2.447132
C     -1.524994    6.344405    1.748851
C     -0.618048    5.972549    0.772582
C     -0.375527    4.597264    0.532690
C      0.519502    4.059672   -0.428158
C      1.279903    4.845746   -1.265325
S      2.255971    3.908942   -2.308010
C      1.661138    2.444432   -1.639640
C      0.735339    2.639901   -0.638284
C      0.066913    1.634332    0.103128
C      0.201989    0.216791   -0.018271
S      1.191140   -0.739119   -1.072192
H      3.281856   -7.162879   -0.239295
H      1.580978   -7.735101   -0.345500
H      2.077620   -6.818117    2.151603
H      1.261160   -4.353365    1.957927
H      2.172808   -6.072910   -3.194161
H     -0.760056   -2.843649    1.063897
H     -2.014006   -0.737679    2.391685
H     -2.261419    1.661573    2.619792
H     -2.876737    5.565503    3.226081
H     -1.735116    7.386401    1.958900
H     -0.107872    6.745018    0.206877
H      1.331035    5.922297   -1.338714
H      2.061944    1.538789   -2.060715
