33

C     -2.109356    2.748243   -1.407599
N     -0.668688    2.669496   -1.383999
C     -0.047812    1.468840   -1.110633
O     -0.662662    0.418151   -0.978846
C      1.379132    1.553491   -0.988168
N      2.164169    2.393905   -1.750587
C      3.461759    2.223424   -1.389117
N      3.568899    1.325312   -0.445617
C      2.279349    0.858568   -0.182171
C      2.065111   -0.168354    0.868348
O      2.948324   -0.369701    1.698071
N      0.862740   -0.861678    0.823635
C      0.412853   -1.878638    1.709339
C      1.113323   -2.226742    2.872827
C      0.643321   -3.220412    3.737309
C     -0.541719   -3.884602    3.456627
C     -1.255293   -3.556255    2.308114
C     -0.790481   -2.563888    1.422351
C     -1.626263   -2.273364    0.204745
H     -2.482619    2.683365   -0.381991
H     -2.397594    3.705289   -1.848214
H     -2.522014    1.925690   -1.998112
H     -0.169298    3.515922   -1.145969
H      1.831328    3.007375   -2.481515
H      4.279385    2.769808   -1.841214
H      0.242591   -0.646716    0.047662
H      2.038484   -1.735184    3.154866
H      1.210130   -3.466615    4.631447
H     -0.909400   -4.654951    4.128556
H     -2.183563   -4.085038    2.101527
H     -2.111370   -1.298515    0.307849
H     -1.013472   -2.299421   -0.701652
H     -2.415251   -3.021647    0.070458
