31

Si    -1.701676   -4.531347    1.349247
C     -0.802821   -5.269510    2.817925
C      0.126930   -4.420830    3.289338
C      0.232310   -3.151893    2.580591
C     -0.613329   -2.981118    1.539196
C     -0.711399   -1.836164    0.687229
C     -1.571316   -1.622885   -0.400600
C     -1.361541   -0.350857   -0.995100
S     -1.889746    0.708843   -2.266395
C     -0.808244    1.996973   -1.909177
C     -0.315481    3.296122   -2.209000
C     -0.615747    4.272160   -3.174338
C      0.099161    5.474260   -3.165995
C      1.094508    5.706177   -2.218003
C      1.410658    4.749047   -1.247390
C      0.696037    3.544244   -1.253645
N      0.817388    2.451015   -0.409659
C     -0.096119    1.560793   -0.839823
C     -0.375342    0.322526   -0.343739
S      0.348559   -0.445451    0.954254
H     -1.429798   -5.269456    0.090155
H     -3.133043   -4.263498    1.638169
H     -1.038070   -6.251333    3.197161
H      0.767852   -4.637815    4.135515
H      0.965334   -2.428863    2.917147
H     -2.310251   -2.327474   -0.758801
H     -1.390027    4.097285   -3.915356
H     -0.125737    6.235887   -3.908847
H      1.636774    6.649256   -2.231971
H      2.188002    4.941748   -0.514566
H      1.449514    2.324219    0.370437
