27

C     -4.485134   -2.922854    0.787621
C     -4.052170   -1.702909    1.286363
C     -2.742712   -1.364485    0.952203
N     -1.994899   -0.254051    1.265634
C     -0.726893   -0.326845    0.721839
C      0.303571    0.716371    0.886031
C      0.058851    1.889041    1.628041
C      1.025981    2.894593    1.796685
C      2.257399    2.674816    1.186593
N      3.417816    3.392964    1.120420
N      4.358107    2.761188    0.399460
N      3.833320    1.616611   -0.021373
C      2.548602    1.539860    0.446851
C      1.569240    0.547629    0.290390
C     -0.685773   -1.536540    0.040381
C     -1.939410   -2.193285    0.177351
C     -2.469492   -3.405876   -0.278768
N     -3.741615   -3.760701    0.031559
H     -5.492976   -3.274021    0.994958
H     -4.690421   -1.069937    1.887967
H     -2.343809    0.509452    1.824052
H     -0.904352    2.056571    2.102843
H      0.815509    3.789452    2.372337
H      3.639259    4.292987    1.527308
H      1.819092   -0.331179   -0.292083
H      0.161439   -1.924806   -0.509692
H     -1.907647   -4.105425   -0.886613
