44

C      0.383693    1.169257   -2.336812
C      0.586514    1.570465   -0.871316
C      2.018494    2.060089   -0.627565
C     -0.435331    2.630358   -0.446901
C     -1.251782    2.127958    0.592485
C     -2.255764    2.908349    1.144523
C     -2.442596    4.203257    0.650286
C     -1.627370    4.698657   -0.384364
C     -1.838846    6.068889   -0.894409
O     -2.708613    6.806133   -0.447661
C     -0.612829    3.915005   -0.944832
C     -0.840179    0.776097    0.901566
C     -1.326188   -0.123627    1.828014
C     -0.726738   -1.390247    1.912296
C      0.354881   -1.784543    1.089906
N      0.924471   -3.041786    1.198312
C      0.217096   -4.171199    1.822677
C      0.728433   -5.500652    1.241409
O      2.134791   -5.717836    1.422393
C      2.892066   -4.501368    1.486378
C      2.275545   -3.335449    0.694621
C      0.825450   -0.842250    0.158366
C      0.233688    0.415918    0.068704
H      0.565660    2.014371   -3.010692
H     -0.638460    0.816946   -2.522211
H      1.065697    0.362037   -2.627794
H      2.752324    1.280723   -0.863206
H      2.252801    2.932882   -1.247857
H      2.174230    2.350720    0.418654
H     -2.888249    2.533150    1.942448
H     -3.226336    4.830610    1.071840
H     -1.169087    6.400387   -1.705524
H      0.018864    4.291035   -1.742690
H     -2.149625    0.131321    2.486198
H     -1.113978   -2.070299    2.666686
H      0.391294   -4.145569    2.904639
H     -0.861517   -4.117053    1.636033
H      0.204032   -6.341006    1.707431
H      0.524141   -5.545992    0.165007
H      2.991171   -4.229923    2.544167
H      3.896952   -4.720407    1.111428
H      2.209699   -3.599180   -0.367352
H      2.937516   -2.468780    0.803889
H      1.636842   -1.086324   -0.518605
