49

C      6.248009    0.509983    4.154267
C      7.035095    1.822000    4.039607
C      6.312306    2.797105    3.442487
C      5.059877    2.229684    3.134973
S      3.681184    2.816841    2.406008
C      2.880135    1.278336    2.588906
C      1.597238    0.901064    2.209263
Si     0.265661    1.850193    1.379389
C     -0.791627    0.284158    1.446793
C     -0.164040   -0.746521    2.047322
C      1.201284   -0.409586    2.475256
N      1.965723   -1.333304    3.068393
C      3.216268   -0.972041    3.443100
C      3.713224    0.326931    3.220476
C      4.964907    0.919233    3.519959
C     -2.126087    0.249443    0.975835
S     -3.337582    0.688310    2.138435
C     -4.599759    0.534346    1.012274
C     -4.149142    0.138466   -0.224200
C     -2.710032   -0.062877   -0.252796
C     -2.018381   -0.503382   -1.436911
C     -0.624498   -0.768566   -1.555998
C     -0.058572   -1.179933   -2.756951
C     -0.866959   -1.342035   -3.864020
C     -2.242312   -1.102695   -3.766385
C     -2.887922   -0.685390   -2.573391
C     -4.345199   -0.464651   -2.521805
C     -5.198596   -0.649794   -3.642416
C     -6.586321   -0.449514   -3.604694
C     -7.201679   -0.049371   -2.431872
C     -6.428536    0.151755   -1.296920
C     -5.019951   -0.049393   -1.330656
H      6.114719    0.226222    5.201810
H      6.742793   -0.290731    3.597780
H      8.047441    1.935690    4.399625
H      6.620511    3.811301    3.236686
H     -0.284416    2.947189    2.217220
H      0.610695    2.233540   -0.013764
H     -0.571718   -1.731282    2.225563
H      3.807680   -1.744777    3.922992
H     -5.606072    0.747569    1.340474
H      0.046859   -0.678026   -0.713690
H      1.008113   -1.376429   -2.820017
H     -0.438835   -1.663432   -4.810079
H     -2.805693   -1.262213   -4.681079
H     -4.799846   -0.965006   -4.602259
H     -7.178767   -0.611152   -4.502024
H     -8.276297    0.105870   -2.399486
H     -6.931383    0.466878   -0.387937
