34

C     -2.713501   -2.775457    3.734630
C     -3.417124   -1.572670    3.728500
C     -3.042306   -0.522511    2.884622
C     -1.937054   -0.727755    2.050491
N     -1.347854    0.109371    1.131606
C     -0.267026   -0.490485    0.515899
C      0.560302    0.162566   -0.512639
C      0.311025    1.466556   -0.954693
C      1.113287    2.072796   -1.938538
C      2.201060    1.404749   -2.525887
C      3.067519    2.014745   -3.566005
C      2.906733    3.304830   -4.076082
N      3.707963    3.852130   -5.029506
C      4.700555    3.054459   -5.471245
C      4.883276    1.775153   -4.985138
N      4.082315    1.236320   -4.036208
C      2.438838    0.095147   -2.071237
C      1.640141   -0.512207   -1.089902
C     -0.179557   -1.757628    1.076594
C     -1.216778   -1.916444    2.035444
C     -1.610650   -2.961299    2.892837
H     -3.022150   -3.578896    4.398809
H     -4.271341   -1.447813    4.390094
H     -3.592127    0.412646    2.882184
H     -1.677584    1.042882    0.943436
H     -0.509971    2.051650   -0.551933
H      0.851649    3.087649   -2.225251
H      2.119012    3.968004   -3.740626
H      5.349741    3.473040   -6.231278
H      5.684173    1.140189   -5.345903
H      3.266300   -0.482201   -2.483391
H      1.888564   -1.527378   -0.791809
H      0.557365   -2.509555    0.828608
H     -1.066795   -3.900945    2.902570
