33

C      3.093192   -0.454529   -4.847541
C      2.239676    0.593702   -5.121144
N      1.449571    1.144722   -4.174788
C      1.535639    0.615952   -2.936827
C      0.750710    1.133158   -1.910252
C      0.792960    0.628346   -0.600934
C     -0.058167    1.210634    0.450828
C     -0.974979    2.252735    0.396918
C     -1.546354    2.440259    1.684802
C     -2.503383    3.322262    2.217288
C     -2.860394    3.247656    3.570647
C     -3.749900    3.938405    4.434686
C     -3.617131    3.356510    5.675459
O     -2.703920    2.350085    5.638826
C     -2.245124    2.285084    4.359880
C     -1.298056    1.399347    3.869853
C     -0.961233    1.494898    2.521027
N     -0.074854    0.771398    1.760685
C      1.665392   -0.434144   -0.346914
C      2.460465   -0.964063   -1.369534
C      2.411919   -0.459098   -2.659153
N      3.194162   -0.997822   -3.615628
H      3.723491   -0.890066   -5.614058
H      2.165460    1.023332   -6.113339
H      0.090132    1.958611   -2.162609
H     -1.220953    2.834411   -0.481781
H     -2.967489    4.064976    1.574383
H     -4.406350    4.758845    4.183564
H     -4.076472    3.532712    6.638023
H     -0.843064    0.663159    4.523194
H      0.485052    0.017789    2.128874
H      1.754988   -0.878818    0.639189
H      3.133619   -1.790592   -1.154305
