32

C      4.119119   -0.433595    0.247856
C      2.996533   -1.318774   -0.313395
C      2.868018   -2.556479    0.602293
C      3.352421   -1.827894   -1.719300
N      1.685921   -0.619954   -0.285086
C      1.241339    0.488143   -0.948273
S      2.062633    1.430024   -2.048892
N     -0.050091    0.845667   -0.687461
C     -1.079026    0.066048   -0.025138
C     -2.390615    0.790001   -0.004638
C     -2.570539    1.953805    0.749837
C     -3.803140    2.599739    0.740770
C     -4.820868    2.058290   -0.025986
N     -4.685815    0.938590   -0.768062
C     -3.476754    0.333542   -0.743682
H      4.332887    0.424620   -0.394482
H      3.854252   -0.043635    1.237410
H      5.053085   -0.998422    0.348456
H      2.068093   -3.221373    0.255546
H      2.624928   -2.264544    1.630883
H      3.798514   -3.134617    0.630682
H      3.598338   -1.017683   -2.409710
H      2.520834   -2.393482   -2.155059
H      4.227213   -2.488022   -1.688576
H      1.146688   -0.832044    0.539473
H     -0.367504    1.618913   -1.263656
H     -1.159679   -0.896735   -0.542821
H     -0.762408   -0.142332    1.003059
H     -1.752787    2.360298    1.340615
H     -3.965759    3.504189    1.316147
H     -5.800832    2.525220   -0.066409
H     -3.408490   -0.559064   -1.360606
