38

C     -5.772558   -1.117671   -1.918800
O     -5.029108   -1.921351   -1.011498
C     -3.869405   -1.390858   -0.517304
C     -3.193736   -2.212602    0.384552
C     -1.995007   -1.797406    0.967520
C     -1.447543   -0.546843    0.652870
C     -0.242356   -0.116208    1.227036
C      0.293801    1.128801    0.883631
S      1.817355    1.667488    1.632564
O      1.826609    3.114821    1.603213
O      1.969706    0.941019    2.875264
N      3.000230    1.117645    0.557341
C      3.147434    1.841219   -0.734289
C      4.167574    1.119487   -1.620649
O      3.762274   -0.212624   -1.968292
C      2.962716   -0.850139   -0.961894
C      3.247674   -0.347458    0.457452
C     -0.385868    1.977621    0.009309
C     -1.586175    1.555766   -0.564772
C     -2.127291    0.295206   -0.258993
C     -3.335225   -0.140582   -0.835107
H     -5.197636   -0.915146   -2.828439
H     -6.666022   -1.679316   -2.208102
H     -6.102971   -0.188079   -1.443660
H     -3.606632   -3.186164    0.638638
H     -1.497180   -2.461746    1.670463
H      0.273822   -0.749393    1.946365
H      2.185356    1.877701   -1.253778
H      3.493024    2.861396   -0.540432
H      5.140752    1.055337   -1.119976
H      4.314839    1.670967   -2.554579
H      3.153053   -1.926124   -1.026079
H      1.910748   -0.689308   -1.223786
H      2.648030   -0.911214    1.176810
H      4.300871   -0.516540    0.711079
H      0.005954    2.964433   -0.227687
H     -2.103544    2.224717   -1.250111
H     -3.844166    0.518167   -1.531621
