27

C      0.551245   -1.338026   -2.261025
N      1.070387   -0.390181   -1.298513
N      2.352080    0.017237   -1.436061
C      2.546829    0.884521   -0.433852
C      1.340195    0.989989    0.355854
C      1.162053    1.820840    1.465012
C      2.327091    2.558951    1.761882
C      3.538284    2.467675    1.012718
C      3.693288    1.630685   -0.111972
C      0.413170    0.139668   -0.207222
C     -0.933674   -0.200203    0.146883
C     -1.538947   -0.233954    1.392416
C     -2.883379   -0.641268    1.203364
C     -3.036111   -0.852917   -0.149409
C     -4.166262   -1.284047   -0.930206
O     -4.172054   -1.473623   -2.143932
O     -1.859476   -0.590981   -0.785701
H     -0.199030   -0.831294   -2.872493
H      0.120232   -2.186745   -1.724610
H      1.366506   -1.691836   -2.898387
H      0.253703    1.927343    2.039258
H      2.302055    3.244520    2.609947
H      4.384668    3.081317    1.321386
H      4.607859    1.568349   -0.684683
H     -1.062626   -0.007329    2.335941
H     -3.639262   -0.774260    1.965094
H     -5.089001   -1.453184   -0.349286
