40

C      2.661642   -5.565074    2.813012
O      1.461763   -5.214280    2.121544
C      1.358928   -3.890984    1.837817
O      2.179329   -3.035832    2.126799
C      0.090022   -3.612197    1.108048
C     -0.902616   -4.588137    0.945221
C     -2.084414   -4.277923    0.271771
C     -2.274924   -2.994181   -0.243423
Cl    -3.762975   -2.660912   -1.064717
C     -1.286107   -2.002514   -0.101371
N     -1.541118   -0.719757   -0.639906
C     -0.655584    0.320322   -0.801667
O      0.547525    0.291562   -0.587774
N     -1.308856    1.441864   -1.276501
C     -0.587239    2.697392   -1.469633
C     -1.355621    3.606554   -2.443860
C     -2.287382    4.565906   -1.711693
C     -1.520423    5.493875   -0.767286
C     -0.218210    4.888521   -0.240807
C     -0.312680    3.373783   -0.112835
C     -0.109000   -2.322373    0.585711
H      2.708713   -5.056902    3.781285
H      3.539310   -5.324995    2.204656
H      2.647456   -6.644229    2.989012
H     -0.772253   -5.591673    1.343971
H     -2.851325   -5.039629    0.154026
H     -2.422032   -0.620020   -1.127736
H     -2.272530    1.524989   -0.988132
H      0.372933    2.445309   -1.938317
H     -0.635469    4.198418   -3.023909
H     -1.923734    3.011017   -3.168490
H     -2.856488    5.165225   -2.431413
H     -3.022802    3.988657   -1.137370
H     -1.287503    6.435325   -1.279480
H     -2.174211    5.757910    0.072845
H      0.604009    5.141846   -0.921913
H      0.030385    5.337326    0.727552
H      0.616281    2.977275    0.314176
H     -1.106604    3.129127    0.605535
H      0.670450   -1.578549    0.736043
