22

O     -2.014036    0.691472    0.089683
C     -0.879734    0.424319    0.487697
C     -0.440871    0.788420    1.822838
C     -1.015342    1.775935    2.657719
N     -0.407096    1.872771    3.842133
N      0.537204    0.923028    3.792054
C      0.556828    0.242033    2.607724
C      0.008439   -0.319065   -0.441438
C      1.391904   -0.107525   -0.460336
C      2.185053   -0.833279   -1.344281
F      3.509243   -0.634102   -1.348474
C      1.630580   -1.756961   -2.223050
C      0.250751   -1.949338   -2.233954
C     -0.555699   -1.221878   -1.358651
O     -1.903602   -1.442011   -1.457995
H     -1.852030    2.429089    2.439090
H      1.128130    0.788957    4.606996
H      1.256195   -0.567030    2.450660
H      1.872291    0.622003    0.183414
H      2.272465   -2.309558   -2.902263
H     -0.199569   -2.653545   -2.929159
H     -2.371893   -0.717303   -0.986345
