41

C      2.048531    2.287124    1.893852
C      0.768156    2.782154    1.278011
C      0.331489    1.900378    0.363151
C     -0.865481    1.945184   -0.489787
C     -1.096329    0.900260   -1.328945
C     -0.162778   -0.193004   -1.356129
S     -0.369285   -1.559510   -2.390554
C      1.099128   -2.263887   -1.778146
C      1.911280   -3.417424   -1.934125
C      1.892149   -4.588293   -2.707669
C      2.936257   -5.508518   -2.543077
C      3.970238   -5.269394   -1.633630
C      3.997665   -4.104737   -0.857934
C      2.948868   -3.202661   -1.037838
O      2.823612   -2.024578   -0.364514
C      1.674086   -1.465034   -0.841612
C      0.983545   -0.277158   -0.575574
C      1.272261    0.776726    0.321066
C      2.268329    0.978107    1.191336
C     -1.824758    3.003236   -0.497875
S     -1.436822    4.549733   -1.198467
C     -2.991779    5.215422   -0.847233
C     -3.753115    4.276759   -0.223672
C     -5.067965    4.215351    0.299040
C     -5.280472    2.985747    0.821689
C     -4.042978    2.093603    0.670664
C     -3.113650    3.032807   -0.022452
H      2.871599    2.981260    1.700448
H      1.934263    2.140608    2.971900
H      0.289368    3.712205    1.545195
H     -1.961943    0.876330   -1.985018
H      1.091657   -4.779097   -3.416008
H      2.940904   -6.422727   -3.133334
H      4.769102   -6.000330   -1.525527
H      4.793106   -3.906604   -0.149467
H      3.099058    0.312805    1.371506
H     -3.234624    6.232865   -1.118149
H     -5.780416    5.027823    0.279320
H     -6.196578    2.657179    1.289447
H     -3.660559    1.790296    1.649183
H     -4.269247    1.217031    0.057343
