64

C     -0.858832   -3.560162   -6.592812
C     -0.121839   -2.454785   -6.767350
C      0.641284   -1.779063   -5.706808
C      1.810932   -1.102580   -6.053966
C      2.549151   -0.398703   -5.095841
C      2.117219   -0.371954   -3.752855
C      2.620801    0.264027   -2.580903
C      3.735479    1.092768   -2.333023
C      3.998834    1.538652   -1.032637
C      3.181319    1.164529    0.033735
C      3.541747    1.609506    1.390507
C      2.750761    2.099583    2.360484
C      1.346780    2.313403    2.247698
S      0.724100    3.463830    1.133161
C     -0.900167    3.151473    1.567997
C     -2.023446    3.807385    0.936992
C     -3.244400    4.098555    1.520118
C     -4.168852    4.737810    0.629997
C     -5.548765    5.161922    1.004253
C     -3.606687    4.896312   -0.619381
S     -2.010395    4.298014   -0.706106
C     -0.957592    2.231425    2.597088
C      0.328944    1.737949    2.997031
C      0.531051    0.714660    4.069255
C      2.085299    0.321503   -0.199277
C      1.783881   -0.078951   -1.519612
N      0.754170   -0.869964   -2.031747
C     -0.342989   -1.379188   -1.275194
C     -1.008398   -0.549970   -0.363764
C     -2.089500   -1.040459    0.377641
C     -2.508558   -2.361511    0.217635
O     -3.543904   -2.963088    0.878752
C     -4.294332   -2.147753    1.770256
C     -1.837989   -3.186786   -0.689560
C     -0.761871   -2.702567   -1.438597
C      0.961355   -1.070604   -3.398155
C      0.193822   -1.743768   -4.376131
H     -1.387958   -4.004019   -7.430437
H     -0.946255   -4.059944   -5.634106
H     -0.053673   -2.016587   -7.760657
H      2.165863   -1.108012   -7.082547
H      3.450093    0.131921   -5.391686
H      4.392974    1.382954   -3.147055
H      4.860176    2.181479   -0.865684
H      4.604207    1.516927    1.612770
H      3.201350    2.338606    3.321346
H     -3.471801    3.875719    2.555149
H     -6.250633    4.334442    0.853582
H     -5.590888    5.464214    2.055736
H     -5.879670    6.011895    0.396559
H     -4.059713    5.338408   -1.495331
H     -1.888812    1.901867    3.042891
H      0.968345   -0.196488    3.647657
H      1.202319    1.098563    4.844288
H     -0.417240    0.446134    4.546468
H      1.479065   -0.024146    0.632208
H     -0.727914    0.495108   -0.246550
H     -2.584299   -0.359753    1.062351
H     -4.761498   -1.309113    1.242453
H     -3.672451   -1.796903    2.600718
H     -5.095754   -2.763416    2.191093
H     -2.154981   -4.220660   -0.809549
H     -0.242608   -3.384144   -2.107551
H     -0.751085   -2.207391   -4.110534
