45

C      2.641009   -4.656609    1.093137
C      3.251012   -4.656859   -0.271043
C      2.780192   -3.612101   -0.964370
C      3.085271   -3.260246   -2.324388
C      2.492998   -2.188323   -2.878356
C      1.544129   -1.355033   -2.107333
C      0.906669   -0.221789   -2.636668
C      1.092633    0.214406   -3.934571
S      0.198717    1.635625   -4.296265
C     -0.458663    1.695952   -2.709674
C     -0.006215    0.648073   -1.961634
C     -0.315781    0.341129   -0.582274
C      0.328003   -0.775307   -0.031131
N     -0.084602   -0.796155    1.287033
C     -0.990980    0.203200    1.571181
C     -1.641123    0.483018    2.786850
C     -2.539275    1.560086    2.875325
C     -3.233051    1.890558    4.117175
C     -3.522550    3.115061    4.697625
C     -4.209959    2.881807    5.912658
C     -4.337934    1.520458    6.050588
N     -3.753309    0.931007    4.961037
C     -2.742731    2.316926    1.689100
N     -3.570198    3.375037    1.535347
S     -3.454970    3.874949   -0.046340
N     -2.346992    2.776034   -0.626356
C     -2.062591    2.023526    0.421262
C     -1.141960    0.916599    0.392723
C      1.214577   -1.630393   -0.741843
C      1.847798   -2.831944   -0.143858
C      1.751331   -3.443320    1.051137
H      3.404955   -4.557008    1.869732
H      2.056460   -5.565258    1.264706
H      3.947381   -5.398925   -0.630085
H      3.782577   -3.869904   -2.888342
H      2.724268   -1.932557   -3.904144
H      1.704665   -0.201901   -4.720402
H     -1.116135    2.512922   -2.480165
H      0.241897   -1.451957    1.975555
H     -1.429550   -0.123466    3.664454
H     -3.261762    4.082474    4.285981
H     -4.576206    3.628719    6.604904
H     -4.801970    0.922014    6.822895
H     -3.729068   -0.064410    4.787964
H      1.143235   -3.180168    1.895420
