41

C     -0.034001    3.464853    2.873840
N     -0.803959    3.677844    4.000737
C     -1.680108    2.619386    4.196799
C     -1.478127    1.705943    3.185064
C     -0.457843    2.264297    2.393728
C     -0.035903    1.531028    1.261337
C      0.922928    1.780480    0.287810
C      0.855028    0.673962   -0.552497
O     -0.104948   -0.200446   -0.099430
C     -0.665223    0.328806    1.033104
C     -1.698248   -0.230564    1.839289
C     -2.271074   -1.471651    1.508966
C     -3.278876   -2.031297    2.283848
N     -3.794046   -3.220623    1.925693
C     -4.773286   -3.749016    2.691433
C     -5.280010   -3.141246    3.823539
C     -4.749484   -1.912512    4.195689
C     -3.732429   -1.329824    3.428656
C     -3.176715   -0.087288    3.781262
C     -2.155314    0.473387    2.990499
C      1.578352    0.294647   -1.760810
C      2.588277    1.122647   -2.314220
C      3.322088    0.806942   -3.482325
C      3.118136   -0.370387   -4.214063
C      2.124075   -1.248450   -3.722006
N      1.787597   -2.419247   -4.284897
S      0.585971   -3.063102   -3.341450
N      0.440761   -1.891742   -2.184330
C      1.329067   -0.921980   -2.469473
H      0.710658    4.179305    2.552597
H     -0.740029    4.490391    4.600461
H     -2.356026    2.632282    5.040686
H      1.578426    2.632179    0.191060
H     -1.925645   -2.013883    0.630376
H     -5.151451   -4.710181    2.354915
H     -6.067241   -3.611687    4.401008
H     -5.131631   -1.414269    5.082755
H     -3.531301    0.442353    4.660589
H      2.828076    2.065907   -1.822159
H      4.079642    1.510904   -3.828266
H      3.685252   -0.603061   -5.107383
