33

C      3.398446   -0.793424   -0.591982
C      2.670686   -0.044521   -1.668620
C      1.411278    0.199382   -1.274316
C      0.346605    0.885856   -1.971495
C      0.403027    1.488688   -3.306268
C     -0.730912    2.072253   -3.732199
Si    -2.070272    1.926209   -2.442712
C     -0.857222    1.001172   -1.341639
C     -1.142638    0.463781    0.019443
C     -2.398635    0.602868    0.636304
C     -2.602658    0.077630    1.911876
Si    -4.156260    0.111976    2.970299
C     -3.207275   -0.826163    4.291387
C     -1.936887   -1.092879    3.937874
C     -1.571470   -0.594179    2.601746
C     -0.323591   -0.744070    2.014036
C     -0.099921   -0.221300    0.729495
C      1.208057   -0.353553    0.060186
C      2.348610   -0.932841    0.472108
H      4.256939   -0.222788   -0.225933
H      3.730561   -1.772877   -0.948354
H      3.113232    0.243484   -2.609058
H      1.310822    1.454862   -3.895251
H     -0.890393    2.566688   -4.677015
H     -3.202075    1.078072   -2.893452
H     -2.466777    3.243269   -1.884484
H     -3.221898    1.111375    0.145222
H     -5.262586   -0.691760    2.393308
H     -4.524180    1.482054    3.406617
H     -3.680666   -1.099143    5.221913
H     -1.225833   -1.623121    4.557258
H      0.464153   -1.261749    2.550681
H      2.517454   -1.429272    1.414294
