30

O      0.254463   -4.370879   -5.033341
C      0.175170   -4.148087   -3.842799
N      0.344829   -5.019884   -2.811098
C      0.181408   -4.423648   -1.598864
O      0.266117   -4.923812   -0.495871
C     -0.126169   -3.019988   -1.867315
C     -0.380718   -1.979519   -0.991370
C     -0.651430   -0.710425   -1.532479
C     -0.932473    0.449699   -0.668313
C     -1.220028    1.769414   -0.989895
C     -1.415362    2.510092    0.207564
C     -1.723266    3.853996    0.492277
C     -1.846729    4.258590    1.826618
C     -1.668116    3.346577    2.864897
C     -1.361864    2.007510    2.603416
C     -1.242648    1.622556    1.262930
N     -0.954314    0.395349    0.712460
C     -0.650599   -0.558020   -2.946605
C     -0.389464   -1.628827   -3.814292
C     -0.129958   -2.851654   -3.238945
H      0.566117   -5.995044   -2.932569
H     -0.362581   -2.178130    0.073818
H     -1.287376    2.180092   -1.988253
H     -1.863851    4.570353   -0.311438
H     -2.084379    5.295122    2.052875
H     -1.768266    3.680512    3.895252
H     -1.223443    1.300040    3.414296
H     -0.783202   -0.429800    1.266348
H     -0.857016    0.413375   -3.392509
H     -0.391528   -1.500635   -4.891828
