44

Si     4.149760   -4.664232   -3.848529
C      5.128664   -3.093328   -4.078110
C      4.603803   -2.089567   -3.349373
C      5.243026   -0.792353   -3.199651
C      4.743649    0.104914   -2.330114
C      3.533851   -0.222215   -1.636757
S      2.884069    0.830090   -0.458152
C      1.461888   -0.126906   -0.253116
C      0.343901    0.097201    0.590825
Si     0.095764    1.474376    1.818596
C     -1.627969    0.742868    2.227203
C     -1.895130   -0.363586    1.496644
C     -0.808961   -0.719447    0.590492
C     -0.742998   -1.729899   -0.345637
C     -1.730875   -2.628672   -0.666330
O     -1.325686   -3.417039   -1.711159
C     -0.059378   -3.019456   -2.059309
C      0.331880   -2.031210   -1.208080
C      1.535268   -1.228009   -1.119031
C      2.771922   -1.382451   -1.793985
C      3.357385   -2.429224   -2.597518
C      3.036360   -3.735610   -2.665483
C     -2.488877    1.284124    3.211398
S     -3.645148    0.350099    4.132818
C     -4.211668    1.716575    5.042728
C     -3.525081    2.797388    4.621948
C     -3.438145    4.175227    4.869086
C     -2.452529    4.635848    3.988302
O     -1.897831    3.651139    3.192451
C     -2.595969    2.566095    3.635446
H      3.437796   -5.075218   -5.082066
H      4.932231   -5.726183   -3.172457
H      6.034708   -3.074495   -4.662707
H      6.150555   -0.582063   -3.755138
H      5.227064    1.064151   -2.176522
H      1.025286    1.382414    2.975486
H      0.022074    2.798797    1.148708
H     -2.800057   -0.952629    1.551492
H     -2.732110   -2.820674   -0.307359
H      0.350527   -3.519834   -2.922176
H      2.281148   -4.266842   -2.114165
H     -4.985024    1.616963    5.790723
H     -3.995333    4.777414    5.572020
H     -2.043092    5.622159    3.811979
