38

C     -1.744742   -1.572021   -4.329082
C     -1.735286   -1.366125   -2.959615
C     -0.761232   -0.548621   -2.350381
C     -0.755373   -0.404299   -0.896181
C      0.047065   -1.220078   -0.098716
C     -0.038769   -0.994527    1.274240
N      0.608570   -1.603986    2.322558
C      0.217166   -1.055495    3.520790
C      0.607891   -1.353933    4.824424
C     -0.001521   -0.589460    5.807635
N     -0.911039    0.383153    5.579901
C     -1.276282    0.654062    4.302414
C     -0.718496   -0.060910    3.234629
C     -0.880147   -0.023259    1.814315
C     -1.659348    0.741106    0.938331
N     -1.587941    0.543233   -0.401530
C      0.224644    0.109651   -3.153997
C      0.192769   -0.139600   -4.533822
C     -0.778284   -0.971664   -5.128977
S      1.457486    0.671074   -5.368654
C      2.039112    1.387073   -3.950037
N      3.111198    2.207154   -4.001314
C      3.461858    2.736726   -2.815554
C      2.820519    2.497756   -1.616780
C      1.724128    1.638376   -1.610033
C      1.303544    1.038187   -2.822677
H     -2.505031   -2.205024   -4.779953
H     -2.495691   -1.843613   -2.343122
H      0.697239   -1.974788   -0.524642
H      1.280713   -2.352102    2.226259
H      1.331237   -2.122620    5.062669
H      0.239138   -0.749078    6.855971
H     -2.009493    1.441597    4.170654
H     -2.342653    1.514022    1.271815
H     -0.778323   -1.137020   -6.203561
H      4.320359    3.403246   -2.854338
H      3.158354    2.973894   -0.702805
H      1.198685    1.458912   -0.677851
