15

C     -0.455375   -0.665577   -1.254292
N     -1.785023   -0.557193   -1.334119
N     -2.100272    0.250824   -0.307767
C     -1.016039    0.656289    0.417178
C      0.077397    0.072185   -0.178525
C      1.472890    0.177177    0.197536
C      2.574699   -0.432672   -0.431138
N      3.727911   -0.127119    0.171962
O      3.378887    0.705490    1.225462
C      2.032680    0.880903    1.232381
H      0.056566   -1.277665   -1.985635
H     -3.077567    0.483702   -0.161726
H     -1.126102    1.309094    1.270827
H      2.602807   -1.082232   -1.294279
H      1.650295    1.516214    2.016627
