36

C      1.369630    6.224748    2.592853
C      0.597258    6.402224    1.469177
N      0.367446    5.169249    0.922294
C      0.978803    4.186219    1.672444
C      1.610278    4.833736    2.722179
C      0.881751    2.780626    1.295215
C      1.476568    1.763391    2.015030
C      1.338835    0.453890    1.592959
N      1.934477   -0.489105    2.326286
C      1.822886   -1.783812    1.945658
C      1.130724   -2.267415    0.832425
C      1.072527   -3.689204    0.510505
C      1.686276   -4.713588    1.257396
N      1.650185   -6.044167    0.983540
C      0.963477   -6.430274   -0.105411
C      0.310550   -5.545303   -0.933828
C      0.369167   -4.172867   -0.619451
C     -0.283975   -3.200982   -1.433801
N     -0.998922   -3.460418   -2.543973
S     -1.544192   -2.011656   -3.118475
N     -0.901802   -0.990660   -1.990747
C     -0.221889   -1.733073   -1.098456
C      0.497970   -1.244739    0.056896
C      0.600743    0.151013    0.441049
C      0.038802    1.263250   -0.213969
N      0.160470    2.553224    0.180868
H      1.722604    7.009396    3.249456
H      0.192236    7.294865    1.012114
H     -0.169763    4.969658    0.087335
H      2.187705    4.361288    3.506081
H      2.052062    1.974880    2.909080
H      2.352486   -2.445000    2.626931
H      2.263545   -4.503645    2.153872
H      0.952189   -7.498996   -0.298915
H     -0.230838   -5.908245   -1.802011
H     -0.554556    1.162016   -1.116501
