39

Si    -1.579760   -3.309631   -3.851371
C     -0.544331   -2.365562   -5.073585
C     -0.012018   -1.263904   -4.511964
C      0.839294   -0.338457   -5.227700
C      1.337799    0.742466   -4.605785
C      1.039091    1.024034   -3.184164
C      1.577418    2.158423   -2.575996
N      1.388754    2.535909   -1.293031
C      0.599501    1.695541   -0.596957
C     -0.003190    0.527118   -1.081883
N     -0.724890   -0.029557   -0.037520
C     -0.583453    0.761730    1.074578
C     -0.960247    0.888731    2.426173
C     -0.331978    2.054314    2.831396
O      0.389798    2.621386    1.806296
C      0.209650    1.796488    0.742935
C     -0.273292    2.791351    4.082325
C      0.447918    3.980609    4.262291
N      0.559264    4.741135    5.404274
C     -0.076477    4.368209    6.550033
C     -0.845224    3.188546    6.528113
N     -1.535843    2.671838    7.557310
S     -2.253608    1.288947    6.993098
N     -1.722545    1.283189    5.423297
C     -0.948539    2.373869    5.257948
C      0.210772    0.158994   -2.420204
C     -0.353224   -1.042016   -3.080502
C     -1.155700   -1.999365   -2.568675
H     -3.023476   -3.304667   -4.187556
H     -1.004533   -4.630133   -3.501010
H     -0.420984   -2.704450   -6.090016
H      1.067498   -0.531331   -6.270971
H      1.976312    1.436230   -5.143198
H      2.214902    2.837148   -3.138652
H     -1.277845   -0.873721   -0.043700
H     -1.588995    0.237356    3.015178
H      1.009087    4.399820    3.424804
H      0.040485    4.997487    7.422170
H     -1.562657   -2.109207   -1.583513
