40

C     -2.568494   -2.179531    1.623348
C     -1.507628   -2.701823    2.547039
C     -0.329133   -2.154645    2.222921
C      0.963148   -2.325525    2.790789
C      1.444795   -3.105336    3.860144
C      2.801688   -2.860733    3.948526
N      3.146966   -1.960673    2.967559
C      2.029244   -1.623754    2.249907
C      1.931648   -0.702339    1.118915
C      3.043774    0.001441    0.588604
N      4.331055   -0.041407    1.001706
S      5.196341    0.994246    0.004518
N      3.977965    1.551109   -1.004762
C      2.915221    0.914047   -0.540472
C      1.614932    1.074557   -1.098107
C      1.190026    1.864522   -2.163527
C     -0.181376    1.636004   -2.275231
O     -0.548488    0.727858   -1.290873
C      0.557731    0.380741   -0.564308
C      0.647577   -0.501902    0.517986
C     -0.502361   -1.240768    1.079709
C     -1.798885   -1.250130    0.726530
C     -1.096857    2.197731   -3.205109
C     -2.404286    1.879967   -3.192235
C     -3.096109    2.590292   -4.237132
C     -2.223930    3.354862   -4.907268
C     -0.852084    3.186963   -4.320598
H     -3.341898   -1.639494    2.177354
H     -3.024756   -2.991036    1.048887
H     -1.681678   -3.407820    3.343687
H      0.879551   -3.770966    4.498507
H      3.552227   -3.248525    4.623924
H      4.076259   -1.595704    2.791608
H      1.780954    2.522587   -2.785505
H     -2.250329   -0.686554   -0.075344
H     -2.893825    1.197289   -2.512576
H     -4.154565    2.504082   -4.431493
H     -2.460188    3.996876   -5.742285
H     -0.156317    2.785642   -5.064109
H     -0.474025    4.138579   -3.934003
