32

N     -1.238181    2.576471    1.974266
C     -0.500413    1.682506    2.041675
C      0.397332    0.567776    2.170614
C      0.216570   -0.312702    3.249105
C      1.064878   -1.406781    3.419190
C      2.100049   -1.628103    2.515838
C      2.286716   -0.757301    1.440571
C      1.438919    0.349308    1.246352
C      1.671877    1.234980    0.102079
C      2.484079    2.379031    0.232820
C      2.708704    3.231329   -0.843836
C      2.134742    2.974788   -2.088250
C      1.331455    1.835238   -2.215097
N      0.655098    1.364738   -3.315485
C     -0.017187    0.205910   -3.022094
C     -0.812060   -0.598409   -3.828930
N     -1.376219   -1.707454   -3.303362
C     -1.154213   -1.997902   -2.004366
C     -0.373756   -1.237665   -1.145589
C      0.223373   -0.083078   -1.679678
C      1.080990    0.952457   -1.160271
H     -0.588022   -0.147574    3.964242
H      0.919531   -2.084050    4.257674
H      2.765130   -2.478780    2.646178
H      3.100457   -0.946171    0.741187
H      2.944113    2.609408    1.192213
H      3.335211    4.110777   -0.712456
H      2.307313    3.644262   -2.925369
H      0.654548    1.815596   -4.218849
H     -1.013108   -0.391207   -4.872748
H     -1.641886   -2.901842   -1.648972
H     -0.242472   -1.538778   -0.114507
