41

C      1.164515   -4.265564   -6.218734
C      1.226090   -5.083143   -5.116946
O      1.035895   -4.365125   -3.982220
C      0.847078   -3.057938   -4.345772
C      0.920318   -2.959990   -5.724612
C      0.621368   -2.102048   -3.263779
C      0.415466   -0.749366   -3.513760
C      0.201596    0.114027   -2.436673
C      0.191061   -0.378426   -1.128490
C      0.417255   -1.745441   -0.983950
N      0.624883   -2.607449   -2.007976
C     -0.026270    0.496301    0.012496
C      0.776003    1.628517    0.326075
C      0.565768    2.493706    1.458534
C     -0.478465    2.325684    2.399628
C     -0.721592    3.190938    3.532761
S      0.489526    3.399347    4.746678
C     -0.483358    4.471808    5.682103
C     -1.690242    4.669095    5.075607
S     -3.103818    5.675679    5.554511
C     -3.833378    5.086588    4.066054
C     -3.056693    4.209744    3.299413
C     -1.790463    3.946862    3.887254
C     -1.264324    1.215406    2.081886
C     -2.350555    0.714509    2.753298
O     -2.837369   -0.379585    2.094594
C     -2.045367   -0.590088    1.000448
C     -1.049685    0.353405    0.958146
H      1.281013   -4.572737   -7.248303
H      1.389015   -6.142296   -4.974692
H      0.811274   -2.057500   -6.308375
H      0.415216   -0.356370   -4.524209
H      0.032029    1.171176   -2.628998
H      0.447691   -2.209948   -0.000682
H      1.622033    1.861402   -0.324117
H      1.255819    3.329581    1.585532
H     -0.139683    4.905195    6.611162
H     -4.830001    5.437981    3.835162
H     -3.406932    3.792439    2.362790
H     -2.886331    0.988473    3.651578
H     -2.327511   -1.432595    0.383798
