38

C      0.446882    3.605471   -0.831557
N      0.208450    2.680426    0.253957
N      0.252394    3.156068    1.517458
C     -0.013099    2.095012    2.292264
C     -0.240432    0.937089    1.465235
C     -0.518555   -0.356409    1.924833
C     -0.600749   -0.455786    3.338541
N     -0.869155   -1.689120    3.980670
C     -2.006320   -1.646914    4.913753
C     -0.788785   -2.913046    3.184491
C     -0.368244    0.705419    4.164669
C     -0.074824    2.005961    3.688366
C     -0.104487    1.342119    0.155484
C     -0.227067    0.645401   -1.089561
C     -1.094091   -0.373224   -1.442673
C     -0.814517   -0.719515   -2.786289
C      0.208242    0.106120   -3.199034
O      0.555923    0.940307   -2.176435
C      0.900423    0.201490   -4.466549
C      1.999844    1.229316   -4.560416
O      0.623390   -0.506302   -5.435072
H      0.450971    4.628827   -0.443082
H      1.419842    3.373149   -1.272877
H     -0.355424    3.502078   -1.568300
H     -0.658092   -1.197444    1.264022
H     -1.829596   -0.970298    5.760884
H     -2.178622   -2.639768    5.350721
H     -2.927588   -1.341630    4.397400
H     -0.825630   -3.791416    3.840213
H      0.160435   -2.972522    2.642948
H     -1.623029   -2.989114    2.477120
H     -0.379314    0.581598    5.247203
H      0.104891    2.849187    4.340457
H     -1.851437   -0.811618   -0.806690
H     -1.295153   -1.476038   -3.390954
H      1.591294    2.229834   -4.394300
H      2.779186    1.013460   -3.822535
H      2.448147    1.196613   -5.559415
