37

C     -4.257221   -0.312334    1.970638
C     -4.596282    0.755692    0.984183
C     -3.494210    1.080857    0.296020
C     -3.381195    2.056759   -0.742085
C     -2.189691    2.252320   -1.327481
C     -0.947069    1.496205   -0.952271
C      0.281628    1.759573   -1.620538
C      0.446727    2.717663   -2.661090
C      1.670658    2.947774   -3.293650
C      2.784179    2.226487   -2.910208
C      2.668287    1.278952   -1.896530
C      1.436302    1.028378   -1.240350
C      1.387365    0.036174   -0.202183
C      2.400402   -0.816792    0.349972
C      3.857423   -1.085262    0.156675
C      4.088162   -2.176133    1.206736
C      2.953909   -2.471770    1.877387
C      1.951640   -1.639498    1.342793
S      0.342370   -1.455890    1.672817
C      0.150433   -0.208525    0.448758
C     -1.024828    0.507897    0.089439
C     -2.348444    0.288589    0.740497
C     -2.792179   -0.525221    1.717633
H     -4.434777    0.023918    2.996307
H     -4.826841   -1.226050    1.777638
H     -5.578131    1.184889    0.859443
H     -4.255662    2.623516   -1.041449
H     -2.142409    2.998549   -2.108174
H     -0.385477    3.319284   -3.012486
H      1.743926    3.690980   -4.083220
H      3.741959    2.395971   -3.394300
H      3.569174    0.738907   -1.631285
H      4.074726   -1.468404   -0.844326
H      4.469566   -0.206822    0.379501
H      5.047986   -2.641416    1.376786
H      2.826159   -3.197360    2.666590
H     -2.238696   -1.252032    2.284413
