38

C     -3.210350   -1.543048    0.744244
O     -2.182687   -2.311050    0.128360
C     -1.852231   -1.971491   -1.160888
C     -2.593556   -1.125983   -1.988458
C     -2.151182   -0.851804   -3.286846
C     -0.971760   -1.421190   -3.766058
C     -0.227667   -2.270443   -2.949598
C     -0.668445   -2.548153   -1.655924
N      0.115625   -3.380402   -0.792425
S      1.565913   -2.741572   -0.195072
O      2.432427   -2.393596   -1.301716
O      2.013427   -3.642987    0.846701
C      1.057929   -1.230674    0.598448
C      0.608695   -1.265147    1.920345
C      0.210243   -0.079096    2.542315
C      0.278442    1.145417    1.861330
C     -0.184296    2.359003    2.547403
C      0.362569    3.572397    2.379810
C     -0.172175    4.717616    3.126719
O     -1.097829    4.720890    3.914621
O      0.514878    5.828902    2.820325
C      0.738351    1.161651    0.536228
C      1.140186   -0.019870   -0.092695
H     -4.181569   -1.749463    0.283420
H     -2.978180   -0.472938    0.719355
H     -3.268714   -1.846085    1.794068
H     -3.520572   -0.668714   -1.659009
H     -2.732070   -0.193087   -3.928814
H     -0.631956   -1.205977   -4.776284
H      0.690730   -2.714627   -3.325907
H     -0.429188   -3.783199   -0.027296
H      0.562100   -2.203332    2.468655
H     -0.142982   -0.118616    3.571252
H     -1.009766    2.225505    3.245461
H      1.202290    3.761406    1.723379
H      0.091542    6.525312    3.364353
H      0.781909    2.090470   -0.027995
H      1.499596    0.010971   -1.119210
