43

C     -0.944216   -0.377868    0.846087
C     -1.307493   -1.785454    1.314081
C     -0.895092   -2.702295    0.414629
C     -0.248753   -2.009136   -0.682624
C      0.331727   -2.481282   -1.828330
N      0.894366   -1.662325   -2.751571
C      0.912623   -0.316184   -2.587891
C      0.315412    0.228806   -1.400590
C     -0.261490   -0.641773   -0.458549
C      0.399582    1.640151   -1.349587
C     -0.059188    2.489681   -0.374333
O      0.224477    3.782289   -0.710534
C      0.870499    3.758084   -1.911792
C      1.001112    2.461840   -2.344238
C      1.604240    2.004432   -3.529580
C      2.198660    2.865525   -4.505156
C      2.788594    2.375736   -5.670743
C      2.767472    0.974005   -5.837384
N      3.288470    0.335905   -6.896959
S      3.026749   -1.279109   -6.648836
N      2.246343   -1.240633   -5.196372
C      2.139171    0.044493   -4.809025
C      1.525552    0.550155   -3.597172
C     -1.986320   -2.126047    2.523767
S     -2.369718   -3.772992    3.005220
C     -3.134690   -3.308320    4.487248
C     -3.080084   -1.966729    4.572555
N     -3.568377   -1.193643    5.584799
C     -3.231129    0.081409    5.137161
C     -2.563843    0.034870    3.894275
C     -2.463338   -1.333128    3.517884
H     -0.261868    0.098053    1.557281
H     -1.847590    0.223028    0.702088
H     -0.998631   -3.775393    0.449442
H      0.373741   -3.539884   -2.061426
H     -0.575918    2.374418    0.566868
H      1.155055    4.727076   -2.297115
H      2.201033    3.943643   -4.351160
H      3.239319    3.026217   -6.410762
H     -3.559175   -4.026724    5.173943
H     -4.045039   -1.494418    6.426177
H     -3.495382    0.937018    5.745653
H     -2.206439    0.899421    3.352089
