31

C     -1.579086    3.953746   -3.413351
C     -2.615395    3.061967   -3.290707
O     -2.270134    2.048203   -2.458689
C     -0.993509    2.275637   -2.029691
C     -0.533407    3.449196   -2.601955
C     -0.402276    1.309291   -1.117391
C      0.920706    1.456483   -0.613927
C      1.486083    0.504819    0.276825
N      2.723465    0.442664    0.880781
C      2.829254   -0.683406    1.678732
C      3.892910   -1.131251    2.460540
C      3.662861   -2.315128    3.144298
N      2.516124   -3.026994    3.096980
C      1.492404   -2.574023    2.329924
C      1.620986   -1.388344    1.598824
C      0.830059   -0.625294    0.731115
C     -0.493451   -0.812849    0.254299
C     -1.397267   -1.796877    0.498657
O     -2.528707   -1.499172   -0.213987
C     -2.295067   -0.326114   -0.888912
C     -1.027130    0.149816   -0.629376
H     -1.577255    4.853681   -4.011772
H     -3.611654    3.006681   -3.706869
H      0.440622    3.892850   -2.454503
H      1.518896    2.314029   -0.913018
H      3.456523    1.126315    0.758815
H      4.833274   -0.601232    2.535133
H      4.435353   -2.741638    3.779535
H      0.597577   -3.183826    2.329174
H     -1.436895   -2.702830    1.083907
H     -3.126128    0.011479   -1.491550
