42

C     -1.796695    1.849631    2.579070
C     -1.750624    0.401802    2.172140
C     -0.724475    0.197983    1.328619
C     -0.280804   -1.048451    0.672941
C      0.807290   -0.996662   -0.144472
C      1.450535    0.264963   -0.306880
N      2.563463    0.451598   -1.101060
C      2.881467    1.762968   -1.009091
C      2.001583    2.434542   -0.171583
C      2.344426    3.905834   -0.055269
C      3.559217    3.927283   -0.969887
C      4.526403    4.804539   -1.478011
C      5.350588    4.039197   -2.296707
N      4.907746    2.724817   -2.296457
C      3.829209    2.676864   -1.493349
C      1.092238    1.482397    0.275133
C     -0.033014    1.480141    1.129598
C     -0.633257    2.443484    1.837001
C     -0.944190   -2.309486    0.807432
S     -0.213140   -3.595981    1.730255
C     -1.527933   -4.679596    1.461173
C     -2.474067   -4.063654    0.703775
Si    -4.155048   -4.521344   -0.007509
C     -4.245600   -2.769062   -0.767650
C     -3.142636   -2.046308   -0.472356
C     -2.165960   -2.728798    0.327594
H     -1.669324    1.957128    3.660283
H     -2.738086    2.313757    2.270597
H     -2.444462   -0.348399    2.520089
H      1.175583   -1.873063   -0.667835
H      3.042973   -0.254859   -1.640972
H      1.541275    4.537959   -0.442311
H      2.610530    4.177225    0.969417
H      4.630791    5.863975   -1.286362
H      6.217530    4.314754   -2.881888
H      5.324173    1.957432   -2.805916
H     -0.337076    3.479136    1.880223
H     -1.512684   -5.677876    1.876806
H     -4.101112   -5.559201   -1.067125
H     -5.213350   -4.713012    1.015226
H     -5.098455   -2.459454   -1.349686
H     -2.994304   -1.025852   -0.808574
