48

C     -3.699182   -3.032450    3.034933
C     -3.889381   -4.490059    3.343536
C     -2.982817   -5.214947    2.675054
C     -2.147201   -4.336809    1.897132
C     -2.530068   -3.060830    2.077891
C     -1.956926   -1.883173    1.484465
C     -2.366954   -0.617841    1.686569
C     -1.503755    0.224342    0.897208
C     -0.540130   -0.503472    0.187052
C     -0.780343   -1.955311    0.515434
C      0.443859    0.104428   -0.679749
C      1.384520   -0.573993   -1.503315
C      1.521615   -1.936212   -1.655956
N      2.523784   -2.166628   -2.569829
C      3.041556   -0.973093   -3.005626
C      2.357858    0.036406   -2.364973
C      2.618768    1.416759   -2.502129
C      3.666019    1.959927   -3.368596
C      4.025627    3.315753   -3.416646
C      3.293747    4.014906   -2.476761
C      3.498635    5.326156   -2.140980
O      2.705359    5.647585   -1.080112
C      1.990804    4.529672   -0.752379
C      2.246065    3.509169   -1.638746
C      1.734284    2.173496   -1.624877
C      0.595288    1.555363   -0.853872
C     -0.517807    2.222600   -0.215785
C     -0.923173    3.509893   -0.492797
S     -2.270373    4.006707    0.451719
C     -2.456780    2.442559    1.123455
C     -1.503947    1.580740    0.637784
H     -4.596624   -2.617762    2.564690
H     -3.462487   -2.473286    3.945869
H     -4.646071   -4.881776    4.006035
H     -2.877465   -6.288911    2.701245
H     -1.341155   -4.691614    1.273230
H     -3.173319   -0.269056    2.309045
H     -1.068789   -2.514533   -0.380090
H      0.097113   -2.393843    1.001049
H      1.014344   -2.783381   -1.222588
H      2.835352   -3.080985   -2.871837
H      3.851328   -0.968292   -3.721596
H      4.226940    1.275475   -4.003622
H      4.818709    3.707144   -4.036447
H      4.157481    6.110133   -2.486296
H      1.385471    4.637205    0.135769
H     -0.528985    4.213749   -1.209815
H     -3.280716    2.241152    1.793561
