38

C      0.645547   -1.168602    4.203650
C      0.169363   -0.577809    2.885897
C      0.135049   -1.635628    1.778657
C     -0.297096   -1.043269    0.456389
N     -1.597117   -0.653121    0.438938
C     -2.120047   -0.096115   -0.662691
N     -3.467441    0.270979   -0.567171
C     -1.357761    0.101994   -1.811301
C     -1.965973    0.702371   -2.962192
N     -2.494530    1.184112   -3.876641
C     -0.001914   -0.298235   -1.821396
C      0.814099   -0.088372   -3.030674
C      0.818396   -1.014880   -4.080375
C      1.596581   -0.780965   -5.211932
C      2.354220    0.377034   -5.260997
N      2.383065    1.295276   -4.272452
C      1.610927    1.046097   -3.189368
C      0.545903   -0.901081   -0.657416
C      1.989447   -1.367627   -0.623276
C      2.919678   -0.366148    0.046325
H      0.656594   -0.399151    4.981935
H     -0.016048   -1.976050    4.533169
H      1.659393   -1.570611    4.109558
H      0.831676    0.248215    2.601600
H     -0.828450   -0.145879    3.029708
H     -0.581366   -2.423280    2.046368
H      1.106762   -2.130351    1.714704
H     -3.582916    1.271284   -0.707033
H     -4.027449   -0.207717   -1.267492
H      0.217873   -1.919839   -4.023743
H      1.609442   -1.484343   -6.037182
H      2.975421    0.604115   -6.122927
H      1.654691    1.814970   -2.421556
H      2.360144   -1.572040   -1.633251
H      2.057238   -2.341044   -0.125028
H      3.951673   -0.729609    0.008894
H      2.660130   -0.211425    1.097136
H      2.886480    0.607724   -0.451586
