34

O     -0.885388    3.736216    0.845567
C      0.064235    3.405766    0.155537
C      0.859986    4.396509   -0.577936
C      1.847490    3.750344   -1.191177
C      1.730484    2.326153   -0.854623
N      0.588181    2.172304   -0.118774
C      0.148955    0.950222    0.470325
C     -0.303362    0.989703    1.800626
C     -0.669389   -0.170384    2.477921
C     -0.611580   -1.408585    1.841616
C     -0.961934   -2.572762    2.537255
C     -0.925828   -3.817155    1.910652
C     -0.208640   -1.481908    0.486491
C      0.162289   -0.302925   -0.221965
C      0.460796   -0.463361   -1.596143
C      0.472360   -1.712706   -2.223801
C      0.155713   -2.867613   -1.511606
C      0.171183   -4.126751   -2.130433
C     -0.164820   -5.272905   -1.414188
C     -0.526174   -5.172035   -0.072858
C     -0.551288   -3.924761    0.568606
C     -0.198761   -2.755855   -0.150357
O      2.600185    1.532033   -1.168679
H      0.643174    5.450059   -0.576267
H      2.636489    4.151245   -1.802655
H     -0.337146    1.923865    2.357498
H     -0.990336   -0.091877    3.514621
H     -1.268985   -2.522470    3.579925
H     -1.202044   -4.701225    2.480788
H      0.686941    0.393754   -2.223607
H      0.730934   -1.765525   -3.279084
H      0.445418   -4.222517   -3.178689
H     -0.148913   -6.243757   -1.902221
H     -0.791225   -6.076934    0.469453
