35

C     -0.118493    0.553863    3.780034
C      0.040821   -0.094361    2.447169
C      0.175062   -1.413248    2.234582
C      0.331731   -2.005785    0.920478
C      0.360277   -1.310478   -0.228011
N      0.513945   -1.791131   -1.516204
C      0.207763   -3.127394   -1.989967
C     -1.298403   -3.361706   -2.102227
C     -1.960806   -2.482380   -3.153681
C      0.209372    0.163113   -0.085171
N      0.181045    1.050060   -1.026058
C      0.010253    2.318722   -0.272058
C      1.214618    3.217006   -0.541150
C     -1.288139    2.984483   -0.720262
N     -0.069876    2.049498    1.187331
C      0.051404    0.767471    1.253802
H     -1.066841    1.098511    3.831781
H      0.698530    1.258913    3.964591
H     -0.112654   -0.181954    4.591060
H      0.175406   -2.104456    3.074626
H      0.444411   -3.085857    0.900617
H      0.371802   -1.045663   -2.204766
H      0.678578   -3.267542   -2.969735
H      0.650986   -3.876246   -1.323942
H     -1.786271   -3.195620   -1.134871
H     -1.469289   -4.411422   -2.368791
H     -1.892434   -1.422520   -2.889971
H     -1.495917   -2.625218   -4.134309
H     -3.021956   -2.736443   -3.241760
H      1.130175    4.165731    0.000199
H      2.144667    2.735191   -0.217892
H      1.312933    3.438480   -1.609587
H     -1.273508    3.198326   -1.794665
H     -1.456510    3.925317   -0.184775
H     -2.150144    2.335896   -0.525447
