37

C      3.013268   -2.684528   -0.425769
C      2.163031   -1.975173   -1.415707
N      2.634780   -1.146095   -2.329465
C      1.551672   -0.724133   -3.058137
C      1.509638    0.166344   -4.141073
C      0.273950    0.460873   -4.726821
C     -0.898041   -0.120765   -4.244389
C     -0.876427   -1.011506   -3.164943
C      0.371542   -1.296342   -2.589766
N      0.796058   -2.085241   -1.542563
S     -0.254142   -2.850288   -0.459284
O     -1.255825   -3.496277   -1.286793
O      0.548343   -3.600663    0.484638
C     -1.018770   -1.519967    0.428532
C     -2.410672   -1.432538    0.468526
C     -3.012184   -0.378188    1.156607
C     -2.233088    0.589846    1.811442
C     -2.827111    1.656009    2.504715
C     -2.042218    2.609963    3.154224
C     -0.654576    2.510164    3.119822
C     -0.047028    1.456238    2.435689
C     -0.821440    0.488707    1.776069
C     -0.222711   -0.575134    1.084209
H      2.896597   -3.768877   -0.509183
H      2.787190   -2.361865    0.594331
H      4.069187   -2.458348   -0.609927
H      2.425376    0.615271   -4.510707
H      0.230212    1.148931   -5.567997
H     -1.848228    0.118825   -4.718745
H     -1.798469   -1.463861   -2.812069
H     -3.035392   -2.172581   -0.027709
H     -4.098681   -0.316584    1.180734
H     -3.910005    1.752233    2.545334
H     -2.515461    3.430585    3.687515
H     -0.043223    3.253140    3.625910
H      1.039443    1.399173    2.422080
H      0.861288   -0.661479    1.070640
