49

C      1.977153    2.912511   -1.497469
C      0.609032    3.179597   -0.939552
C      0.057831    2.027881   -0.525438
C     -1.239000    1.767429    0.089791
C     -1.492608    0.479544    0.430857
C     -0.544675   -0.615888    0.195330
C      0.662998   -0.428233   -0.386970
C      1.531260   -1.584968   -0.576945
C      2.224176   -2.267762    0.453783
C      3.084767   -3.400258    0.231308
C      3.348480   -3.957695   -1.045485
C      4.206554   -5.104525   -1.268563
C      4.056735   -6.393391   -0.796056
C      5.123017   -7.250044   -1.197260
C      6.058635   -6.583233   -1.956768
S      5.655447   -4.935241   -2.169139
C      2.650955   -3.278306   -2.048886
C      2.610773   -3.532243   -3.396329
O      1.790245   -2.628453   -4.014154
C      1.295409   -1.793356   -3.051055
C      1.792774   -2.155078   -1.825550
C      1.002311    0.935755   -0.761190
C      2.117701    1.428275   -1.321433
C     -2.247110    2.738898    0.371809
S     -3.047402    3.594851   -0.918373
C     -4.043990    4.504397    0.158138
C     -3.767397    4.143216    1.440046
C     -4.235781    4.512042    2.725007
C     -3.568630    3.799242    3.662327
C     -2.546583    2.853701    3.020773
C     -2.764190    3.156956    1.575390
H      2.032763    3.190222   -2.553643
H      2.743993    3.450120   -0.933219
H      0.156546    4.158044   -0.886951
H     -2.437737    0.195399    0.887533
H     -0.874334   -1.605173    0.503980
H      2.110068   -1.914021    1.479643
H      3.569746   -3.842337    1.103218
H      3.215044   -6.711452   -0.191738
H      5.200773   -8.299768   -0.940620
H      6.965536   -6.980648   -2.390712
H      3.067040   -4.263120   -4.049378
H      0.620965   -1.024938   -3.402928
H      2.992604    0.863780   -1.605932
H     -4.754557    5.226836   -0.218151
H     -5.005613    5.246361    2.915153
H     -3.722075    3.874236    4.728645
H     -1.531545    3.103648    3.341083
H     -2.780225    1.811357    3.258810
