37

O     -0.501011    0.385120    1.520255
C     -0.606460    1.172145    0.583835
N     -0.899187    0.856965   -0.726562
C     -1.064667   -0.424092   -1.161877
N     -1.057191   -1.537900   -0.481931
C     -1.263755   -2.616955   -1.330114
C     -1.288694   -3.979719   -0.801379
C     -0.993488   -4.190254    0.549788
C     -1.017932   -5.481565    1.048408
N     -1.313773   -6.566587    0.303253
C     -1.598500   -6.346063   -0.996082
C     -1.599973   -5.091561   -1.588058
C     -1.427284   -2.269662   -2.659507
S     -1.323977   -0.562987   -2.840983
C     -0.501386    2.693255    0.803691
C      0.588181    3.037465    1.812869
O      1.898847    2.806533    1.282753
C      2.023226    3.285139    0.007455
C      3.319056    3.426287   -0.484774
C      3.524628    3.925124   -1.771824
C      2.433329    4.279566   -2.565837
C      1.134960    4.123264   -2.078257
C      0.930798    3.612355   -0.797047
O     -0.371647    3.447324   -0.406139
H     -0.917349    1.593137   -1.419321
H     -0.746703   -3.362065    1.209021
H     -0.793036   -5.679883    2.092406
H     -1.835719   -7.235838   -1.572662
H     -1.846367   -5.011769   -2.639362
H     -1.594457   -2.896790   -3.521877
H     -1.467950    2.983851    1.234786
H      0.492652    2.443901    2.728078
H      0.525333    4.095166    2.099933
H      4.168124    3.156260    0.137597
H      4.536433    4.041550   -2.152402
H      2.595252    4.674475   -3.565829
H      0.287256    4.395210   -2.701009
