40

Si     0.450264   -1.175637    1.925535
C      2.286275   -0.878512    1.756652
C      2.555458    0.132534    0.909865
C      1.353818    0.747764    0.323680
C      1.369892    1.789327   -0.569230
N      0.248785    2.329375   -1.090748
C     -0.983192    1.871099   -0.758641
C     -2.096997    2.528473   -1.380815
N     -1.871467    3.547583   -2.247625
C     -2.897270    4.189274   -2.851659
C     -4.223580    3.880238   -2.652004
C     -4.512537    2.848192   -1.777618
C     -3.452061    2.162437   -1.133696
C     -3.588051    1.092236   -0.218267
C     -4.805842    0.576396    0.165649
S     -4.630606   -0.706430    1.281677
C     -2.919577   -0.571509    1.252330
C     -2.474242    0.424489    0.412719
C     -1.101258    0.774216    0.179000
C      0.102969    0.222006    0.712164
C      3.259099   -1.631889    2.454667
S      4.619803   -0.847253    3.254954
C      5.287048   -2.325311    3.855617
C      4.490986   -3.325344    3.443930
O      4.667732   -4.649836    3.699058
C      3.575285   -5.162821    3.025769
C      2.780480   -4.193756    2.399988
C      3.400405   -2.962337    2.692122
H     -0.077518   -0.875512    3.280645
H      0.020737   -2.493335    1.387993
H      3.544991    0.487626    0.650044
H      2.295838    2.241792   -0.910481
H     -2.601392    4.988775   -3.525295
H     -5.007014    4.427550   -3.162496
H     -5.549910    2.583783   -1.601691
H     -5.801871    0.867938   -0.135496
H     -2.380157   -1.260598    1.877646
H      6.187325   -2.381789    4.449509
H      3.496548   -6.241111    3.077321
H      1.892586   -4.388989    1.816308
