48

C     -0.451498    1.275350    1.407181
C     -1.428886    2.282487    1.991582
C     -2.191468    2.759289    0.988056
C     -1.813052    2.156796   -0.266552
C     -0.806517    1.298421   -0.051883
C     -0.115928    0.486639   -1.050412
C      0.913855    1.109606   -1.762381
C      1.629141    0.407453   -2.725036
C      1.327582   -0.934747   -3.009514
C      2.133495   -1.613548   -4.022373
C      3.314722   -2.317157   -3.747487
N      4.130407   -2.974562   -4.637154
C      3.831932   -2.995430   -5.968927
C      2.667613   -2.326978   -6.400688
N      2.212715   -2.242079   -7.661970
S      0.813740   -1.349204   -7.595666
N      0.728287   -1.027776   -5.971731
C      1.795141   -1.614595   -5.399170
C      0.274014   -1.586913   -2.302041
C     -0.085474   -2.936757   -2.544852
C     -1.113463   -3.569446   -1.844643
C     -1.823116   -2.868057   -0.885148
C     -1.500023   -1.536490   -0.626186
C     -0.454547   -0.868016   -1.312747
C     -1.557974    2.681474    3.352805
S     -2.615811    3.975995    3.900354
C     -2.175628    3.814623    5.566424
C     -1.273213    2.816375    5.658284
N     -0.665202    2.362400    6.794753
C      0.144990    1.350367    6.283916
C      0.002936    1.231950    4.883845
C     -0.943844    2.210347    4.467571
H     -0.606298    0.283675    1.841246
H      0.585737    1.595137    1.570357
H     -2.987947    3.487096    1.055116
H     -2.281937    2.376440   -1.211749
H      1.167767    2.149666   -1.567362
H      2.426373    0.918388   -3.260561
H      3.669679   -2.380109   -2.718369
H      4.505224   -3.527292   -6.629721
H      0.437290   -3.523219   -3.298388
H     -1.362428   -4.605001   -2.060195
H     -2.630182   -3.349042   -0.338327
H     -2.084986   -1.014616    0.127985
H     -2.593204    4.441932    6.341329
H     -0.790576    2.692524    7.743907
H      0.772694    0.784662    6.964862
H      0.531978    0.518219    4.266962
