48

C      2.891674    2.566789    2.375606
S      3.077602    0.938291    2.831549
C      1.579839    0.482765    2.109172
C      1.278033   -0.922105    2.092735
C      1.145816   -1.797323    3.166562
C      0.871378   -3.083642    2.636610
C      0.628456   -4.374188    3.125592
N      0.382800   -5.456856    2.333306
C      0.370020   -5.312247    0.984069
C      0.146783   -6.243530   -0.065421
C     -0.133984   -7.612462   -0.111313
N     -0.301017   -8.242370   -1.302389
C     -0.190377   -7.525135   -2.442848
C      0.084900   -6.166806   -2.508998
C      0.251780   -5.539525   -1.276230
N      0.530469   -4.222741   -0.966245
C      0.596659   -4.102378    0.381597
C      0.866137   -2.904707    1.272596
O      1.109200   -1.626202    0.922866
C      0.900822    1.582882    1.596949
C      1.704274    2.788822    1.717065
C      1.326770    4.068751    1.230474
C      2.121258    5.244256    1.340572
C      1.675292    6.452641    0.823669
C      0.443515    6.504052    0.195435
C     -0.343610    5.348260    0.086123
C      0.045995    4.079523    0.592319
C     -0.798096    2.874575    0.482944
C     -2.073854    2.914837   -0.137398
C     -2.925486    1.808652   -0.237566
C     -2.542864    0.592984    0.293185
C     -1.301903    0.480184    0.908769
C     -0.407919    1.584936    0.997556
H      3.678681    3.262463    2.626640
H      1.236357   -1.526994    4.209772
H      0.621669   -4.580866    4.192240
H     -0.229441   -8.220919    0.780992
H     -0.336276   -8.100019   -3.354272
H      0.162448   -5.643053   -3.452682
H      0.663608   -3.473020   -1.631899
H      3.092410    5.225628    1.825303
H      2.286645    7.346495    0.909586
H      0.081431    7.443526   -0.215378
H     -1.295682    5.479699   -0.419922
H     -2.457948    3.835145   -0.567762
H     -3.892827    1.912118   -0.722707
H     -3.205401   -0.266253    0.236215
H     -1.060220   -0.484344    1.335045
