44

C     -3.036398    1.635790   -4.653772
C     -3.697290    2.278355   -5.877755
C     -4.293999    3.448809   -5.556495
C     -4.111449    3.698930   -4.174582
C     -4.483862    4.674442   -3.303272
S     -3.901031    4.282904   -1.725700
C     -3.155536    2.803916   -2.253026
C     -3.362742    2.643902   -3.602636
C     -2.434049    1.962139   -1.299274
C     -1.211945    1.386247   -1.613477
C     -0.572410    0.570321   -0.668684
C      0.656628   -0.012990   -0.962505
C      1.301707   -0.827855   -0.028602
C      0.763543   -1.107393    1.244915
C     -0.485706   -0.512269    1.542443
C     -1.007795   -0.797528    2.808348
N     -0.441571   -1.575883    3.758398
C      0.732109   -2.146993    3.505350
C      1.240437   -2.943638    4.568412
C      2.454272   -3.658425    4.572241
C      3.101360   -3.474548    3.369143
C      4.310228   -4.036056    3.054170
N      4.615619   -3.618908    1.783227
C      3.611604   -2.802022    1.296674
C      2.639766   -2.686254    2.265158
C      1.400712   -1.950597    2.247356
C     -1.161384    0.331994    0.586031
C     -2.400164    0.971217    0.783736
N     -3.038853    1.763354   -0.111982
H     -3.483752    0.661863   -4.436774
H     -1.958358    1.538060   -4.807428
H     -3.682060    1.837423   -6.863346
H     -4.831639    4.094765   -6.236117
H     -5.055388    5.574899   -3.476408
H     -0.751598    1.581719   -2.576525
H      1.137195    0.156246   -1.924456
H      2.251802   -1.240878   -0.335958
H     -1.960484   -0.390613    3.136503
H      0.627190   -3.005672    5.470259
H      2.798646   -4.251223    5.406439
H      4.978737   -4.685403    3.603355
H      5.453450   -3.870984    1.274595
H      3.729543   -2.404435    0.302949
H     -2.955555    0.868238    1.711488
