32

C     -0.829983   -1.166788    2.018488
C     -0.041177   -0.028049    2.610732
C     -0.079006    0.090396    4.014779
C      0.691141    1.035594    4.682425
C      1.525896    1.874440    3.955500
C      1.573239    1.797477    2.552449
C      2.504602    2.764709    1.902527
O      3.091062    3.673228    2.463759
O      2.707444    2.552407    0.585458
C      0.745897    0.875412    1.859899
N      0.785622    0.864320    0.440921
C     -0.293102    0.713132   -0.409894
O     -1.468033    0.608340   -0.080726
C      0.040309    0.774844   -1.864591
C     -0.945686    1.215191   -2.760705
C     -0.672100    1.282921   -4.128239
C      0.580446    0.901943   -4.595453
F      0.843037    0.965687   -5.906939
C      1.564271    0.448696   -3.722620
C      1.295832    0.379899   -2.353140
H     -1.870968   -0.872241    1.859479
H     -0.389524   -1.527142    1.084544
H     -0.825183   -2.027553    2.697925
H     -0.706446   -0.581266    4.599581
H      0.652445    1.105736    5.766546
H      2.138988    2.598952    4.489512
H      3.346312    3.264948    0.355949
H      1.563251    1.394326    0.047135
H     -1.928046    1.507207   -2.393118
H     -1.427855    1.625421   -4.828231
H      2.529081    0.143246   -4.116006
H      2.063295   -0.004946   -1.686452
