39

C     -2.198879    3.136887   -0.244738
C     -3.708550    3.044261   -0.129827
C     -4.157699    1.782721   -0.008487
C     -2.991734    0.936511   -0.035994
C     -1.809564    1.680539   -0.172370
C     -0.552641    1.043796   -0.199215
N      0.721082    1.570011   -0.258246
C      1.677188    0.569307   -0.258994
C      3.087654    0.676605   -0.266341
C      3.895924   -0.477535   -0.307496
C      5.346446   -0.420638   -0.278326
C      6.236462   -0.910366    0.659733
N      7.576051   -0.700277    0.391088
C      7.688012   -0.047836   -0.744484
S      6.221941    0.347520   -1.540715
C      3.172810   -1.678643   -0.404671
C      3.768267   -2.915057   -0.562459
S      2.617243   -4.180134   -0.764865
C      1.294532   -3.084792   -0.664644
C      1.752383   -1.825870   -0.412324
C      0.969512   -0.630953   -0.265444
C     -0.383807   -0.345909   -0.135229
C     -1.581189   -1.119909    0.080411
C     -1.823558   -2.426787    0.372326
O     -3.180977   -2.596776    0.507901
C     -3.771274   -1.370821    0.340556
C     -2.810278   -0.421484    0.103448
H     -1.774804    3.700293    0.591052
H     -1.902984    3.576470   -1.201269
H     -4.346751    3.917074   -0.142582
H     -5.177377    1.451063    0.092398
H      0.930068    2.557428   -0.280560
H      3.552779    1.659775   -0.229015
H      5.958269   -1.434812    1.566561
H      8.648681    0.228810   -1.158934
H      4.818891   -3.167865   -0.605107
H      0.300613   -3.453878   -0.843507
H     -1.243990   -3.316867    0.553720
H     -4.846471   -1.357049    0.447651
