45

C     -4.223703    1.743638    4.517048
N     -3.544092    1.224955    3.334788
C     -4.206949    0.323406    2.483372
C     -5.553500   -0.049150    2.607684
C     -6.139811   -0.964692    1.723424
C     -5.391682   -1.524024    0.691979
C     -4.058604   -1.159847    0.537776
C     -3.481022   -0.240596    1.419314
O     -2.160895    0.067623    1.176928
C     -1.585720    1.095544    1.905431
C     -0.290305    1.498607    1.508542
C      0.414943    0.881434    0.370148
C      1.604503    0.165872    0.572975
C      2.299635   -0.423745   -0.492866
C      1.796096   -0.296570   -1.801805
C      0.611973    0.418801   -1.991986
C     -0.091775    1.013286   -0.936120
N      0.335966    0.394396   -3.339820
C      1.296558   -0.305507   -4.011905
N      1.301388   -0.502633   -5.343593
C      2.362465   -1.230187   -5.761529
C      3.366179   -1.742121   -4.948862
C      3.310512   -1.506458   -3.574444
C      2.228312   -0.755010   -3.084435
C      0.328152    2.532946    2.225996
C     -0.322791    3.148442    3.292079
C     -1.603062    2.734618    3.668597
C     -2.258820    1.693367    2.996391
H     -4.778265    2.655586    4.271620
H     -3.527230    1.962621    5.333658
H     -4.917322    1.016888    4.953241
H     -6.187222    0.369205    3.382284
H     -7.185461   -1.237283    1.843458
H     -5.845805   -2.235741    0.008156
H     -3.464169   -1.583727   -0.266806
H      2.000507    0.049835    1.580443
H      3.215239   -0.976382   -0.304930
H     -1.011579    1.562457   -1.119405
H     -0.457792    0.824256   -3.787990
H      2.391018   -1.404956   -6.834793
H      4.179890   -2.316402   -5.378252
H      4.075594   -1.890561   -2.908726
H      1.321099    2.876072    1.941507
H      0.164539    3.958689    3.828762
H     -2.072934    3.261608    4.492270
