46

Si    -4.960326    4.342469   -1.031397
C     -6.496368    5.336653   -0.452349
C     -6.716749    5.175508    0.871006
C     -5.785187    4.314591    1.533176
C     -5.699650    3.932242    2.844535
S     -4.375299    2.845940    3.074325
C     -3.902649    2.914093    1.411207
C     -4.760192    3.735039    0.738437
C     -2.777701    2.135562    0.943737
C     -2.884489    1.003225    0.104427
C     -1.754259    0.245919   -0.369801
C     -0.395045    0.544177   -0.063880
C      0.776260   -0.197558   -0.521486
N      1.946324   -0.219244    0.087085
C      2.835304   -1.017840   -0.605453
C      2.341974   -1.610032   -1.748435
S      0.716015   -1.124780   -1.977972
C      3.005633   -2.469923   -2.704124
C      4.028174   -2.017382   -3.575985
C      4.694216   -2.859514   -4.523873
C      4.415581   -4.233119   -4.693415
C      3.424310   -4.677564   -3.816372
C      3.003221   -5.983557   -3.782502
S      1.794311   -6.218500   -2.580172
C      1.837297   -4.564523   -2.108178
C      2.739941   -3.841537   -2.856063
C     -0.318365    1.670463    0.766939
C      0.793687    2.294565    1.276362
O      0.422680    3.380024    2.019339
C     -0.941771    3.451072    1.993445
C     -1.443941    2.422335    1.239686
H     -5.351136    3.285130   -1.991103
H     -3.890188    5.258028   -1.489804
H     -7.073605    5.918111   -1.151705
H     -7.538743    5.647755    1.396514
H     -6.329631    4.209070    3.679491
H     -3.878403    0.669429   -0.197715
H     -1.980391   -0.620046   -0.993515
H      3.843632   -1.137502   -0.224761
H      4.325905   -0.966737   -3.537516
H      5.466425   -2.408674   -5.150659
H      4.934020   -4.851958   -5.413807
H      3.332186   -6.818406   -4.385888
H      1.196772   -4.234139   -1.302030
H      1.859560    2.121382    1.214781
H     -1.373975    4.273314    2.546270
