43

C      0.772777    3.481243   -0.112327
C     -0.380383    2.706395    0.437656
C     -0.094964    1.392364    0.423797
C     -0.922453    0.261755    0.865186
C     -2.215569    0.463129    1.395142
C     -3.018387   -0.601748    1.820837
C     -2.486913   -1.885945    1.700558
C     -1.202758   -2.099750    1.175382
C     -0.380630   -1.042014    0.742178
C      1.002962   -1.265140    0.175831
C      1.543902   -2.575374    0.053729
C      2.817886   -2.821609   -0.464450
C      3.572079   -1.745414   -0.870459
C      4.909551   -1.747892   -1.435289
C      5.243291   -0.473675   -1.679768
C      4.149980    0.491398   -1.296262
C      3.087003   -0.432166   -0.772186
C      1.813193   -0.162878   -0.255938
C      1.242654    1.191706   -0.124920
C      1.752923    2.396767   -0.438278
C     -4.363667   -0.369153    2.370451
C     -5.249526   -1.278910    2.818449
C     -6.448495   -0.622064    3.271983
C     -6.318997    0.700477    3.110213
C     -4.974336    1.006481    2.517154
H      1.179335    4.170010    0.633874
H      0.485098    4.036563   -1.009748
H     -1.289007    3.172219    0.783643
H     -2.595554    1.476789    1.473346
H     -3.055868   -2.758110    2.011779
H     -0.876885   -3.133215    1.121641
H      0.980289   -3.449632    0.362820
H      3.195875   -3.835543   -0.541782
H      5.503630   -2.628991   -1.614703
H      6.185771   -0.157480   -2.103616
H      3.808228    1.037242   -2.180310
H      4.509880    1.172118   -0.519494
H      2.716043    2.617564   -0.863004
H     -5.129849   -2.350509    2.854631
H     -7.306960   -1.136500    3.676444
H     -7.060691    1.442439    3.363627
H     -4.392740    1.637618    3.196901
H     -5.089279    1.504185    1.548792
