24

O      3.297476    0.439972   -1.354398
S      2.103028    0.158471   -0.318001
O      2.885834   -0.555798    0.899825
N      1.063390   -0.859755   -0.881702
C     -0.093576   -0.226539   -0.641377
S     -1.640861   -0.963730   -1.057184
C     -1.160570   -2.569379   -1.762051
C     -0.788503   -3.591017   -0.692227
O     -0.557922   -4.853461   -1.313985
C     -0.009162    1.131333   -0.022022
C     -0.997643    2.079254    0.344370
C     -0.619312    3.307084    0.901351
C      0.722632    3.616727    1.102630
C      1.728303    2.710230    0.758665
C      1.344375    1.481325    0.208407
H     -0.354635   -2.455780   -2.495630
H     -2.018505   -2.948251   -2.329744
H      0.121694   -3.306779   -0.156449
H     -1.600405   -3.719615    0.031284
H     -0.233114   -5.455733   -0.621890
H     -2.053449    1.864014    0.191197
H     -1.386022    4.029223    1.177522
H      0.993779    4.578427    1.535646
H      2.776751    2.948550    0.918867
