33

C     -0.790630    1.070621    1.880916
N     -1.394904   -0.064830    1.586593
N     -1.047642   -0.773693    0.305298
C     -1.613896   -2.092394    0.166746
C     -2.942633   -2.270259    0.559488
C     -3.508822   -3.542610    0.486309
C     -2.741098   -4.624169    0.050508
C     -1.401819   -4.444298   -0.301284
C     -0.825625   -3.175256   -0.233836
C     -1.108283    1.659588    3.099249
C     -0.513221    2.846512    3.518554
C      0.420431    3.458308    2.702520
C      0.744717    2.879663    1.474344
C      0.146254    1.670045    1.026513
C      0.416749    1.047088   -0.234565
C     -0.223477   -0.174692   -0.597151
C     -0.028404   -0.693321   -1.901023
C      0.839038   -0.093421   -2.810744
C      1.517292    1.053137   -2.444997
C      1.302222    1.615657   -1.185635
H     -3.549998   -1.438161    0.905949
H     -4.547604   -3.699304    0.774259
H     -3.185742   -5.618057    0.000867
H     -0.807635   -5.303278   -0.611116
H      0.232021   -3.072158   -0.459440
H     -1.837389    1.185756    3.755820
H     -0.777191    3.286508    4.478164
H      0.896992    4.385981    3.014963
H      1.482359    3.408112    0.874396
H     -0.568826   -1.566484   -2.259601
H      0.977819   -0.515078   -3.805323
H      2.199949    1.532486   -3.146179
H      1.844981    2.536606   -0.978242
