43

C     -1.966299    3.907433    2.329242
C     -0.653151    3.582078    1.608465
C     -0.270501    4.699196    0.631016
C      0.473259    3.320570    2.611308
C      1.014092    4.184731    3.553431
C      2.047876    3.714386    4.365277
C      2.525961    2.401162    4.229795
C      1.978309    1.533900    3.279536
C      0.951814    1.998837    2.472950
C      0.208388    1.334735    1.423062
C      0.314938    0.042759    0.927249
C     -0.534494   -0.373429   -0.116211
C     -0.445250   -1.737419   -0.658261
C     -0.480777   -2.861086    0.162006
N     -0.400244   -4.138558   -0.278574
C     -0.281581   -4.324578   -1.607479
C     -0.196210   -5.610066   -2.118484
C     -0.072941   -5.829770   -3.488297
C     -0.038780   -4.727986   -4.319664
N     -0.118492   -3.456766   -3.874459
C     -0.237028   -3.269463   -2.542640
C     -0.320810   -1.981902   -2.032684
C     -1.477431    0.546585   -0.633712
C     -1.587171    1.848848   -0.135624
C     -0.740581    2.231954    0.891924
H     -2.249794    3.114015    3.031686
H     -1.886913    4.838524    2.902143
H     -2.792596    4.025950    1.618859
H      0.668303    4.476399    0.109177
H     -0.137234    5.655314    1.150175
H     -1.043238    4.842937   -0.132967
H      0.648554    5.200581    3.661775
H      2.489282    4.371326    5.111220
H      3.332541    2.055305    4.872120
H      2.356852    0.521977    3.184098
H      1.060078   -0.633651    1.336146
H     -0.589148   -2.766367    1.240339
H     -0.226481   -6.453894   -1.434459
H     -0.005768   -6.834429   -3.889759
H      0.056293   -4.838353   -5.396291
H     -0.275128   -1.150454   -2.732756
H     -2.149662    0.241010   -1.434673
H     -2.320502    2.534519   -0.547738
