34

C     -3.103523    2.666213   -2.152254
C     -2.141957    1.753900   -1.451888
C     -2.603964    0.785228   -0.559052
C     -1.704754   -0.045377    0.123408
C     -0.319422    0.070091   -0.054254
N      0.612930   -0.764804    0.611261
N      1.967032   -0.775404    0.342260
C      2.603022   -1.671598    1.213738
C      4.061508   -1.921104    1.024117
C      1.744291   -2.193981    2.114984
C      1.780847   -3.106032    3.216028
C      3.055830   -3.746276    3.661441
C      0.616145   -3.348833    3.836982
C     -0.672100   -2.723215    3.424515
O     -1.680317   -3.007754    4.062702
N     -0.680674   -1.869078    2.351032
C      0.412465   -1.596419    1.716141
C      0.127767    1.062201   -0.947250
C     -0.765546    1.895851   -1.631335
H     -4.055728    2.159394   -2.341157
H     -2.706137    2.982006   -3.122617
H     -3.290334    3.554192   -1.540589
H     -3.670493    0.662546   -0.381820
H     -2.123726   -0.791184    0.793211
H      2.206320   -0.944741   -0.635262
H      4.251881   -2.292947    0.011713
H      4.622137   -0.989736    1.156008
H      4.470181   -2.652545    1.721157
H      3.468974   -4.379634    2.869776
H      3.795334   -2.988489    3.940194
H      2.905240   -4.385643    4.538723
H      0.536760   -4.019161    4.685270
H      1.191890    1.217148   -1.105290
H     -0.373931    2.659128   -2.299797
