37

C      1.168888    3.706894   -5.476552
O      0.280819    4.010524   -4.407773
C     -0.142262    2.962866   -3.638243
C      0.213268    1.624713   -3.805423
C     -0.297176    0.649466   -2.940488
C     -1.160765    1.004488   -1.896513
C     -1.673733   -0.073669   -1.007352
O     -1.661679   -1.249849   -1.365011
N     -2.125080    0.312416    0.242555
N     -2.366065   -0.724960    1.167922
C     -1.897221   -0.524835    2.454040
O     -1.498601    0.568355    2.855282
C     -1.918270   -1.768724    3.319037
C     -0.714195   -2.648641    3.089428
C      0.556985   -2.226919    3.507721
C      1.677958   -3.029562    3.286080
C      1.533761   -4.257211    2.644613
Cl     2.914392   -5.246660    2.370639
C      0.277953   -4.688925    2.223194
C     -0.844384   -3.887014    2.444760
C     -1.527844    2.344739   -1.736822
C     -1.014920    3.314363   -2.604367
H      2.105629    3.280722   -5.102406
H      0.695069    3.042308   -6.206574
H      1.410070    4.644213   -5.987144
H      0.881917    1.302962   -4.597137
H     -0.013947   -0.392023   -3.084464
H     -1.818793    1.191560    0.659663
H     -2.320536   -1.660993    0.760352
H     -1.958658   -1.463604    4.371694
H     -2.847418   -2.319916    3.128611
H      0.682043   -1.265946    4.005428
H      2.657022   -2.690309    3.613609
H      0.166262   -5.646556    1.721442
H     -1.817183   -4.240974    2.109612
H     -2.225287    2.657426   -0.965295
H     -1.303504    4.355956   -2.478808
