38

C     -1.729072   -0.783333   -1.171967
C     -1.718329   -2.125834   -0.495663
C     -0.677218   -2.198360    0.352691
C      0.068351   -0.958584    0.317557
C     -0.524931   -0.124020   -0.560529
C     -0.029168    1.230853   -0.847828
C     -0.670900    2.061067   -1.761557
N     -0.297827    3.313331   -2.093536
C      0.806299    3.765848   -1.457265
C      1.426721    5.028404   -1.601389
C      2.514431    5.046692   -0.761897
N      2.564696    3.835452   -0.120058
C      1.530232    3.019984   -0.521376
C      1.129593    1.715572   -0.184945
C      1.820058    0.830966    0.793869
C      2.923707    1.079008    1.531522
Si     3.383190   -0.385453    2.618611
C      1.918551   -1.288106    1.924996
C      1.252975   -0.532233    1.029663
C     -2.722879   -3.141764   -0.773953
N     -2.627476   -4.303016   -0.121714
C     -3.577636   -5.182789   -0.425287
N     -4.569960   -4.997246   -1.291832
C     -4.556969   -3.802278   -1.876287
N     -3.668314   -2.834789   -1.664342
H     -1.615964   -0.883796   -2.256852
H     -2.644139   -0.228140   -0.939001
H     -0.421203   -3.043929    0.973125
H     -1.560648    1.727984   -2.290007
H      1.103175    5.828696   -2.251978
H      3.254050    5.811225   -0.565255
H      3.271180    3.589450    0.553488
H      3.545841    1.949238    1.583949
H      3.242350   -0.066062    4.059213
H      4.679304   -0.982394    2.217445
H      1.678995   -2.291881    2.237492
H     -3.539747   -6.141239    0.081174
H     -5.344984   -3.597323   -2.593096
