46

C     -1.309529    1.053320    2.465635
C     -2.362057    0.041561    2.928208
C     -2.352504   -1.066736    2.153698
C     -1.356673   -0.929690    1.152429
C     -0.715381    0.322874    1.308289
C      0.286754    0.521855    0.393648
S      0.406334   -0.851202   -0.653495
C     -0.883065   -1.698044    0.127972
C     -1.276768   -3.011913   -0.340332
C     -0.434259   -4.149649   -0.297312
C     -0.830827   -5.453661   -0.737670
C     -2.105413   -5.754202   -1.264479
C     -2.930107   -4.629560   -1.309521
C     -4.214280   -4.679170   -1.792436
S     -4.962165   -3.133304   -1.731023
C     -3.559037   -2.397210   -1.061595
C     -2.545419   -3.308206   -0.869376
C      1.138777    1.664107    0.250686
S      2.872739    1.544588    0.180949
C      3.111833    3.261669    0.050908
C      4.425162    3.886683   -0.047107
C      4.662737    5.214696    0.299444
C      5.952498    5.729312    0.173929
C      6.971151    4.909050   -0.290977
C      6.656323    3.600979   -0.610429
N      5.416386    3.077174   -0.497534
C      1.891046    3.838051    0.060261
O      1.598300    5.167509   -0.036181
C      0.218663    5.114198    0.009482
C     -0.301177    3.821167    0.131200
C      0.823396    2.977029    0.169051
H     -1.786857    1.988177    2.161595
H     -0.573353    1.236045    3.253284
H     -3.017228    0.206037    3.770760
H     -2.992195   -1.930430    2.272983
H      0.575914   -4.036866    0.099323
H     -0.101256   -6.260671   -0.658878
H     -2.383298   -6.747071   -1.592617
H     -4.760731   -5.526689   -2.182603
H     -3.569569   -1.336294   -0.853365
H      3.869483    5.853969    0.671129
H      6.156180    6.762901    0.438899
H      7.984377    5.278352   -0.400624
H      7.414620    2.915258   -0.977418
H     -0.259625    6.082520   -0.062678
H     -1.348278    3.557480    0.168411
