40

C      1.360002   -0.161175    2.071699
N      1.996015    1.044787    2.190153
C      1.494211    1.935219    1.265119
C      0.541363    1.290464    0.506914
C      0.453409   -0.054054    1.042748
C     -0.418896   -1.066765    0.629228
C     -1.244183   -0.578731   -0.405199
C     -1.170460    0.765895   -0.953976
C     -2.031324    1.213396   -1.976106
C     -3.041851    0.513976   -2.591329
O     -3.650731    1.296391   -3.529563
C     -3.024924    2.508518   -3.513074
C     -2.024427    2.504993   -2.572817
C     -1.145928    3.558071   -2.253779
C     -1.151365    4.826673   -2.872170
C     -0.208960    5.741290   -2.462037
N      0.708498    5.476031   -1.517810
C      0.676173    4.236876   -0.946107
C     -0.223283    3.194802   -1.224117
C     -0.247381    1.834888   -0.565570
C     -0.480962   -2.410051    1.179013
N      0.689209   -3.105404    1.393064
C      0.691398   -4.382088    1.887395
C     -0.411884   -5.150765    2.235755
C     -1.637100   -4.490743    2.033231
N     -2.847198   -5.013114    2.288849
S     -3.958220   -3.847666    1.890386
N     -2.958221   -2.634090    1.366124
C     -1.695001   -3.085791    1.489115
H      1.613961   -0.980400    2.731221
H      2.713552    1.258746    2.870987
H      1.885347    2.937719    1.284435
H     -1.982489   -1.262816   -0.823753
H     -3.448111   -0.483141   -2.497763
H     -3.410588    3.232517   -4.216445
H     -1.861164    5.088802   -3.646834
H     -0.159068    6.735050   -2.896479
H      1.473871    4.119193   -0.228097
H      1.691483   -4.800427    2.002048
H     -0.338646   -6.156824    2.622152
