42

C      1.542277   -0.126207    2.638440
O      0.445241   -0.950143    2.269056
C      0.700145   -2.284208    2.052780
C      1.926566   -2.912146    2.284639
C      2.065898   -4.281481    2.051096
C      0.983452   -5.024306    1.585800
C     -0.244734   -4.404582    1.348830
C     -0.397308   -3.035913    1.578456
N     -1.607076   -2.333660    1.369758
C     -2.803233   -2.814503    0.877674
O     -3.022444   -3.963654    0.501356
C     -3.902100   -1.764530    0.829551
S     -3.958236   -0.977038   -0.803615
C     -2.612127    0.110035   -0.685019
N     -2.015908    0.445615    0.441478
N     -1.004019    1.319596    0.107757
C     -1.058374    1.469808   -1.201413
C     -0.234465    2.282793   -2.086762
C      0.799154    3.063754   -1.550095
C      1.602906    3.856055   -2.376755
C      1.392430    3.879436   -3.758628
C      2.242206    4.753857   -4.632951
C      0.359204    3.108744   -4.300464
C     -0.444541    2.317169   -3.473071
O     -2.064618    0.735053   -1.771615
H      1.167228    0.893249    2.759945
H      2.307816   -0.113028    1.855364
H      1.964452   -0.437389    3.600246
H      2.790739   -2.368744    2.651811
H      3.019361   -4.770730    2.237269
H      1.092099   -6.091982    1.404728
H     -1.064025   -5.017836    0.987882
H     -1.525593   -1.333479    1.558857
H     -3.785474   -1.030183    1.633707
H     -4.857025   -2.271364    1.006657
H      0.983512    3.065578   -0.476728
H      2.393018    4.457829   -1.932588
H      2.098525    4.520959   -5.693344
H      1.982699    5.805301   -4.473836
H      3.303120    4.605664   -4.403881
H      0.169215    3.117634   -5.371625
H     -1.238398    1.728302   -3.929101
