35

C     -1.287492    2.314490   -4.160233
C     -0.658626    1.420661   -3.113465
N     -1.430180    1.014248   -2.142015
N     -0.866301    0.362274   -1.073627
C      0.011412    1.044894   -0.225643
O      0.438219    2.182948   -0.420501
C      0.476797    0.228287    0.958884
N     -0.616495   -0.163136    1.821915
C     -1.238292    0.659866    2.718855
N     -2.206541    0.038768    3.351291
C     -2.209190   -1.238379    2.847758
C     -3.040627   -2.321294    3.167531
C     -2.848145   -3.538405    2.503447
C     -1.846911   -3.675339    1.540354
C     -1.006025   -2.606787    1.207142
C     -1.215931   -1.398097    1.882808
C      0.746451    1.095860   -3.311723
C      1.790479    1.960212   -3.581790
C      3.029385    1.278263   -3.759825
C      2.887373   -0.085950   -3.643079
S      1.269596   -0.537178   -3.323040
H     -0.947384    3.343428   -4.011030
H     -2.378173    2.290160   -4.079040
H     -1.001464    1.982537   -5.162566
H     -1.521914   -0.269174   -0.615589
H      1.005923   -0.662756    0.608389
H      1.175827    0.820249    1.560011
H     -0.953424    1.694696    2.866875
H     -3.816239   -2.206420    3.916661
H     -3.487267   -4.384862    2.743900
H     -1.716894   -4.633254    1.039863
H     -0.229849   -2.728033    0.458921
H      1.676137    3.037027   -3.626853
H      3.975206    1.765105   -3.964725
H      3.655260   -0.841818   -3.736253
