42

C     -0.040216    0.128737   -0.935692
C     -1.257361    1.000520   -1.095609
C     -2.019037    0.894721    0.003966
C     -1.389437    0.007513    0.948934
C     -0.233729   -0.463598    0.447024
C      0.739650   -1.384630    1.041133
C      1.938338   -1.754039    0.415068
N      2.915281   -2.600609    0.871240
C      2.810251   -3.205698    2.094835
C      3.909862   -4.086906    2.476641
C      4.734929   -4.816525    1.634477
C      5.731473   -5.558504    2.331505
C      5.656059   -5.360999    3.690196
S      4.400413   -4.282439    4.110493
C      1.638078   -2.961455    2.856871
N      1.295440   -3.482107    4.050216
S     -0.169457   -2.845651    4.463975
N     -0.466251   -1.890369    3.150791
C      0.575729   -2.015905    2.306928
C     -1.515254    1.770811   -2.299247
C     -1.225589    1.324752   -3.616161
C     -1.474856    2.089606   -4.811142
C     -2.028344    3.388173   -4.821060
C     -2.286202    3.816009   -3.526350
C     -2.796575    5.040456   -3.181668
N     -2.863358    5.070146   -1.806034
C     -2.397773    3.883023   -1.278285
C     -2.050275    3.067077   -2.329471
H     -0.011338   -0.661318   -1.693940
H      0.874480    0.730042   -0.985165
H     -2.972624    1.369624    0.178980
H     -1.831323   -0.209463    1.909611
H      2.185379   -1.347307   -0.565990
H      4.619916   -4.815371    0.556445
H      6.467297   -6.197397    1.859052
H      6.283541   -5.790774    4.458833
H     -0.802925    0.329174   -3.752386
H     -1.219183    1.632926   -5.767926
H     -2.207016    3.955951   -5.722396
H     -3.107222    5.893190   -3.769580
H     -3.190526    5.855672   -1.258978
H     -2.356262    3.749422   -0.206596
