46

C      4.540901   -0.754723   -0.194466
C      4.467404   -2.242925   -0.321095
C      3.251889   -2.655485    0.062998
C      2.819615   -4.012905    0.247564
C      1.633635   -4.238916    0.834638
C      0.757413   -3.114629    1.201714
C     -0.449340   -3.296180    1.872486
C     -0.976645   -4.461604    2.370277
O     -2.173685   -4.208409    2.974153
C     -2.413362   -2.870123    2.855602
C     -1.378424   -2.263445    2.184892
C     -1.257299   -0.905739    1.816258
C     -2.267335    0.057046    2.132255
C     -2.226699    1.389249    1.698627
C     -3.248925    2.365488    2.029278
C     -3.014248    3.601922    2.693922
C     -4.038266    4.557299    3.040386
C     -5.412693    4.387256    2.761054
C     -5.620157    3.182300    2.106124
C     -6.816343    2.685328    1.663856
O     -6.609104    1.479796    1.050984
C     -5.267100    1.214809    1.103340
C     -4.615654    2.229307    1.759205
C     -1.117954    1.710040    0.870697
N     -0.906051    2.905462    0.289607
S      0.434064    2.759076   -0.656959
N      0.842017    1.193572   -0.351884
C     -0.030019    0.686572    0.537556
C     -0.024429   -0.666128    1.076632
C      1.003466   -1.724744    0.884475
C      2.402274   -1.507663    0.401518
C      3.178831   -0.411933    0.334680
H      5.320387   -0.460753    0.514684
H      4.723000   -0.278139   -1.161926
H      5.298379   -2.872896   -0.597915
H      3.473835   -4.828272   -0.039576
H      1.301450   -5.255117    1.009740
H     -0.661236   -5.495058    2.395197
H     -3.346514   -2.537251    3.287880
H     -3.118012   -0.248058    2.742563
H     -1.987758    3.857546    2.965234
H     -3.724836    5.470755    3.548188
H     -6.171429    5.111044    3.020939
H     -7.841585    3.026178    1.686880
H     -4.963935    0.290109    0.633252
H      2.920900    0.590725    0.629245
