45

C     -1.510830    1.543614    2.768323
C     -1.822776    1.195428    4.226424
C     -1.616391   -0.117451    4.472840
C     -1.163285   -0.752419    3.287256
C     -1.081230    0.210055    2.250892
C     -0.608296   -0.313525    1.073789
S     -0.304992   -2.009781    1.274786
C     -0.783801   -2.017221    2.937955
C     -0.755427   -3.256254    3.715064
C     -1.903760   -3.685847    4.394905
C     -1.886748   -4.860783    5.150415
C     -0.719141   -5.615908    5.238926
C      0.430192   -5.199337    4.570481
C      0.412109   -4.025760    3.812118
C     -0.339979    0.315051   -0.209142
C      0.871120    0.207716   -0.898698
N      1.205491    0.775879   -2.101923
C      0.302427    1.534777   -2.802583
C      0.722852    2.090586   -4.072561
C      1.913290    2.846733   -4.220800
C      2.355455    3.393872   -5.448564
C      1.655271    3.226589   -6.652634
C      0.468569    2.458384   -6.583036
N     -0.331049    2.169585   -7.621420
S     -1.563134    1.237295   -7.018741
N     -1.133557    1.144470   -5.421236
C     -0.011274    1.870648   -5.273458
C     -0.964675    1.771451   -2.202763
N     -1.958259    2.555054   -2.660922
S     -3.209677    2.422965   -1.588475
N     -2.533144    1.436856   -0.445867
C     -1.291710    1.131086   -0.868908
H     -2.409104    1.914008    2.269331
H     -0.705454    2.280640    2.708256
H     -2.164519    1.919125    4.951274
H     -1.759234   -0.613500    5.422644
H     -2.825125   -3.112038    4.330193
H     -2.785479   -5.186787    5.666398
H     -0.705385   -6.530197    5.826768
H      1.341973   -5.786667    4.638676
H      1.321235   -3.713608    3.303661
H      1.685877   -0.374285   -0.467365
H      2.528354    3.019985   -3.335800
H      3.282533    3.966725   -5.459395
H      2.003547    3.647360   -7.588214
