41

C      0.330484   -4.491080   -5.323695
C      0.125584   -4.281113   -3.833892
C      0.263014   -2.823624   -3.426419
O      0.438044   -1.924855   -4.237584
N      0.125622   -2.663433   -2.062903
C      0.239576   -1.461026   -1.398667
S     -0.448465   -1.560240    0.163456
C     -0.145495    0.080598    0.480511
C      0.540602    0.679497   -0.558347
C      0.785743   -0.219457   -1.653506
C      1.569534    0.157418   -2.795908
N      2.259051    0.554737   -3.642149
C      0.976789    2.107066   -0.409322
C     -0.048729    2.944295    0.425439
C     -1.015716    3.642869   -0.559942
C      0.703903    4.042743    1.197478
N     -0.893470    2.211771    1.412183
C     -0.511401    0.819136    1.753095
C      0.673477    0.819224    2.734801
C     -1.730720    0.205188    2.471542
H     -0.408987   -3.930761   -5.905350
H      1.325573   -4.155980   -5.634513
H      0.231740   -5.551241   -5.576352
H     -0.874670   -4.627850   -3.550924
H      0.864910   -4.869295   -3.278575
H     -0.263994   -3.426913   -1.523542
H      1.953200    2.094791    0.093186
H      1.138192    2.567036   -1.391274
H     -1.582385    2.911230   -1.147818
H     -0.470825    4.284116   -1.262587
H     -1.736441    4.280240   -0.033361
H      1.395228    3.618571    1.933555
H      1.291396    4.668740    0.515760
H      0.012379    4.702656    1.734911
H     -1.851343    2.186176    1.060629
H      0.914414   -0.201026    3.057488
H      1.586414    1.233275    2.294750
H      0.444507    1.403035    3.634201
H     -2.601958    0.134001    1.808643
H     -2.024493    0.808134    3.339875
H     -1.516599   -0.803377    2.844435
