44

C      2.489106    1.987773   -0.513602
C      2.242925    1.361765    0.824734
C      1.113663    0.636268    0.784903
C      0.490519   -0.135080    1.847752
C     -0.660359   -0.776366    1.550341
C     -1.294269   -0.712867    0.215357
N     -2.438043   -1.417209    0.119269
C     -3.058890   -1.398266   -1.075744
C     -2.610046   -0.714424   -2.213691
C     -3.300890   -0.719419   -3.473529
C     -4.504973   -1.391969   -3.755945
N     -5.149046   -1.390532   -4.949431
C     -4.583606   -0.683371   -5.943395
C     -3.404519    0.020609   -5.797066
C     -2.761934   -0.000990   -4.550262
C     -1.576759    0.679451   -4.327093
N     -0.915434    0.693733   -3.149889
C     -1.405918    0.014057   -2.089821
C     -0.737476    0.015125   -0.854398
C      0.527487    0.723177   -0.553848
C      1.317776    1.501183   -1.313495
C      1.020295   -0.299540    3.162821
S      0.351741    0.574187    4.510410
C      1.466929   -0.110130    5.639003
C      2.324614   -0.969786    5.009896
C      3.402910   -1.756930    5.523889
C      4.048833   -2.504627    4.602087
Si     3.292839   -2.264530    2.853084
C      2.060020   -1.060701    3.618872
H      2.493288    3.079417   -0.444349
H      3.432794    1.640866   -0.944404
H      2.885659    1.494190    1.682223
H     -1.182025   -1.383498    2.284760
H     -3.974419   -1.983188   -1.081355
H     -5.020850   -1.982441   -3.003866
H     -5.118371   -0.697302   -6.888869
H     -2.998260    0.572859   -6.638234
H     -1.097820    1.258590   -5.113132
H      1.159001    1.763148   -2.348205
H      1.419886    0.164306    6.683252
H      3.671709   -1.747154    6.573865
H      4.883108   -3.169693    4.755114
H      4.284976   -1.631793    1.947767
H      2.695335   -3.533884    2.368544
