50

C      1.864940    4.465597    1.874484
N      2.646000    3.837391    0.830449
C      3.917844    4.230080    0.461334
C      4.753092    5.249078    0.950938
C      6.010139    5.413897    0.361422
C      6.425043    4.591208   -0.680141
C      5.589634    3.576705   -1.157514
C      4.315819    3.388496   -0.579199
C      3.252813    2.462646   -0.817809
C      3.080271    1.392898   -1.719605
C      1.894576    0.647257   -1.695726
C      0.872682    0.940541   -0.786943
C     -0.374230    0.164076   -0.771106
C     -1.677268    0.626027   -0.754426
C     -2.633861   -0.430914   -0.727869
C     -2.037084   -1.674567   -0.729236
C     -2.667404   -2.984306   -0.686560
C     -3.343083   -3.453245    0.456091
C     -3.967379   -4.720085    0.514710
C     -3.983644   -5.634364   -0.564261
C     -4.626767   -6.947319   -0.494405
C     -4.166115   -8.174028   -0.939813
C     -5.087365   -9.234218   -0.697084
C     -6.230114   -8.788261   -0.075158
S     -6.187910   -7.104730    0.210374
C     -3.318768   -5.210662   -1.755566
N     -3.202561   -5.891548   -2.911240
S     -2.356829   -4.932717   -3.961601
N     -2.088416   -3.601546   -3.018029
C     -2.647305   -3.847743   -1.819219
S     -0.330648   -1.550789   -0.728303
C      1.032396    2.010544    0.111369
C      2.225722    2.757008    0.079105
H      2.091999    3.961576    2.816987
H      2.119096    5.526214    1.935961
H      0.801497    4.379457    1.640197
H      4.444525    5.897400    1.764417
H      6.672267    6.196821    0.723960
H      7.406001    4.733789   -1.126189
H      5.922427    2.935061   -1.967982
H      3.861964    1.144372   -2.431484
H      1.780185   -0.166254   -2.409395
H     -1.935097    1.678059   -0.773975
H     -3.706831   -0.281619   -0.720778
H     -3.379908   -2.820344    1.343937
H     -4.448979   -4.999118    1.453337
H     -3.205669   -8.308995   -1.423935
H     -4.919235  -10.268778   -0.969605
H     -7.091730   -9.369512    0.223208
H      0.251051    2.245910    0.827408
