48

C      2.591999   -0.353345   -5.119516
C      3.724523   -1.340392   -5.121375
C      4.208770   -1.454498   -3.878137
C      5.309366   -2.244671   -3.389444
C      5.616523   -2.150521   -2.081045
C      4.859892   -1.292879   -1.161182
C      3.803207   -0.534416   -1.549645
C      3.131400    0.220402   -0.546626
C      3.554585    1.067111    0.463707
C      2.387784    1.477102    1.112254
C      2.259006    2.363230    2.222212
N      3.300343    2.937207    2.805194
S      2.576556    3.846001    4.012383
N      0.962684    3.478758    3.755690
C      0.914019    2.624527    2.708375
C     -0.259484    2.037416    2.128179
C     -1.564651    2.299154    2.610016
C     -2.692474    1.709868    2.023467
C     -4.014891    1.995771    2.537023
C     -5.225326    1.462179    2.030147
C     -4.973064    0.617187    0.961625
C     -5.917454   -0.065668    0.240533
N     -5.241716   -0.784015   -0.723025
C     -3.882667   -0.563012   -0.620155
C     -3.689981    0.308580    0.424807
C     -2.467442    0.828640    0.912880
C     -1.171146    0.554784    0.416674
C     -0.060808    1.159920    1.023781
C      1.257980    0.912529    0.554846
N      1.753342    0.127637   -0.470022
C      3.455038   -0.592910   -2.969595
C      2.518629    0.061994   -3.675303
H      2.815630    0.502576   -5.763082
H      1.658202   -0.823670   -5.441188
H      4.090946   -1.851164   -5.998197
H      5.868637   -2.877963   -4.067210
H      6.441805   -2.719664   -1.664097
H      5.185305   -1.316764   -0.123845
H      4.576369    1.349456    0.682521
H     -1.685819    2.974681    3.456103
H     -4.098009    2.678066    3.385778
H     -6.197600    1.696704    2.438106
H     -6.995327   -0.115353    0.313050
H     -5.679704   -1.387269   -1.407005
H     -3.199482   -1.050574   -1.300926
H     -1.056487   -0.119081   -0.424947
H      1.188976   -0.447322   -1.079551
H      1.826592    0.797675   -3.296353
