38

C     -2.198186   -0.302422    6.993638
C     -1.585428    0.903121    6.687614
C     -1.135573    1.153562    5.387690
C     -1.296761    0.184030    4.362807
C     -1.916907   -1.019344    4.700836
C     -2.372359   -1.277167    6.009670
S     -2.028609   -2.069571    3.349534
C     -1.260591   -0.953079    2.297540
C     -0.984752   -1.139487    0.924436
C     -0.345960   -0.131150    0.184496
C     -0.062216   -0.334960   -1.248380
C     -0.324914   -1.418423   -2.077244
C      0.144349   -1.130251   -3.387609
C      0.152093   -1.831953   -4.606200
C      0.708199   -1.251714   -5.754547
C      0.892227   -1.634769   -7.108924
C      1.520978   -0.578833   -7.729734
O      1.739488    0.434543   -6.850246
C      1.245348    0.024524   -5.650990
C      1.255362    0.745814   -4.467272
C      0.696203    0.145853   -3.340638
N      0.560938    0.600727   -2.051474
C      0.003018    1.048272    0.845235
C     -0.271843    1.231309    2.208862
C     -0.915475    0.220342    2.962920
H     -2.546466   -0.492726    8.006118
H     -1.453256    1.657579    7.459295
H     -0.657310    2.103945    5.164847
H     -2.852777   -2.221254    6.251456
H     -1.276275   -2.075076    0.456616
H     -0.809372   -2.338989   -1.780131
H     -0.275870   -2.829277   -4.655674
H      0.602229   -2.565524   -7.574414
H      1.863398   -0.400118   -8.739368
H      1.685905    1.740396   -4.432320
H      0.881725    1.506559   -1.746213
H      0.498554    1.863873    0.327810
H      0.015475    2.164067    2.688007
