39

C     -2.267464    2.590039    3.595905
C     -0.829611    2.184896    3.588369
C     -0.202546    1.422004    4.628173
C      1.127678    1.174218    4.376775
S      1.635203    1.861743    2.900274
C      0.068467    2.465135    2.570068
C     -0.169306    3.248317    1.375072
N     -0.003655    2.920160    0.126734
C      0.314137    1.623468   -0.163640
C      1.398533    1.143710   -0.794525
C      2.545825    1.962099   -1.288011
N      1.391163   -0.253043   -0.939280
C      2.539778   -0.998687   -0.395213
N      0.133362   -0.683007   -0.413339
C     -0.456274   -1.910567   -0.814479
C      0.102812   -2.685571   -1.842645
C     -0.477494   -3.896871   -2.232893
C     -1.630087   -4.352746   -1.600818
C     -2.203537   -3.595418   -0.583881
C     -1.621972   -2.383353   -0.196415
C     -0.564409    0.428268    0.088226
O     -1.679536    0.499120    0.585973
H     -2.789050    2.185623    4.469361
H     -2.355134    3.680916    3.624222
H     -2.776262    2.221771    2.699388
H     -0.708614    1.069697    5.519517
H      1.826598    0.626750    4.994107
H     -0.545672    4.270127    1.559136
H      2.745892    1.738032   -2.340868
H      2.348596    3.036146   -1.211599
H      3.450439    1.749055   -0.709943
H      3.454207   -0.728147   -0.933663
H      2.414609   -2.080025   -0.499975
H      2.681460   -0.776349    0.668716
H      0.980932   -2.340464   -2.381323
H     -0.032936   -4.475901   -3.038054
H     -2.085105   -5.291753   -1.904391
H     -3.106361   -3.942618   -0.087875
H     -2.092425   -1.827930    0.610950
