47

O      1.039877    2.720400   -3.756957
C      0.954841    2.340280   -2.372103
C      2.405656    2.111102   -1.855536
N      2.658149    1.344018   -0.627987
C      2.239876   -0.063928   -0.688542
C      2.173085   -0.713847    0.708405
N      1.131791   -0.063543    1.523937
C     -0.140180   -0.637999    1.658049
C     -0.598612   -1.704763    0.870598
C     -1.882780   -2.242408    1.032462
C     -2.741687   -1.728668    1.997121
C     -2.313859   -0.680370    2.801403
C     -1.030415   -0.148902    2.632502
C      1.117096    1.421036    1.433968
C      2.311085    2.005498    0.638190
C      0.170328    3.379735   -1.622359
C      0.501712    4.714731   -1.469224
N     -0.484013    5.328368   -0.747167
C     -1.474115    4.427685   -0.434811
C     -2.662783    4.609967    0.282465
C     -3.495283    3.500154    0.451915
C     -3.153215    2.260466   -0.080553
C     -1.965625    2.097935   -0.802784
C     -1.100765    3.199007   -0.981394
H      0.147125    3.018403   -4.003761
H      0.412441    1.390521   -2.368524
H      2.958107    1.603103   -2.659233
H      2.917413    3.079993   -1.774346
H      2.957297   -0.616779   -1.305387
H      1.256146   -0.166606   -1.157846
H      3.138031   -0.587044    1.217313
H      2.038161   -1.797726    0.632115
H      0.019289   -2.134611    0.089724
H     -2.206269   -3.064733    0.399689
H     -3.735581   -2.147668    2.125476
H     -2.969246   -0.274885    3.567104
H     -0.719980    0.655696    3.294388
H      1.136324    1.841385    2.446466
H      0.196083    1.756866    0.953953
H      3.197861    1.914110    1.280056
H      2.173780    3.085076    0.509674
H      1.359552    5.274741   -1.818888
H     -0.494911    6.304853   -0.486582
H     -2.933251    5.574921    0.698707
H     -4.422346    3.606435    1.010582
H     -3.806803    1.404794    0.071969
H     -1.708148    1.117969   -1.194503
