28

C      0.018211    4.464228    2.579701
C     -0.040022    5.396854    1.550027
C     -0.110552    4.963432    0.226052
C     -0.117312    3.593861   -0.080481
C     -0.037731    2.647277    0.954853
C      0.012231    3.099832    2.283583
N     -0.083171    1.263049    0.711510
C     -0.086050    0.631197   -0.544986
C     -0.079958   -0.773917   -0.594883
C     -0.123009   -1.466871   -1.814808
C     -0.104158   -2.926103   -1.831139
N     -0.033345   -3.675056   -0.673116
C     -0.041158   -4.899698   -1.133641
O     -0.109589   -4.979282   -2.484318
N     -0.151097   -3.667224   -2.952370
C     -0.187527   -0.730068   -3.002202
C     -0.214611    0.666646   -2.966998
C     -0.171556    1.353624   -1.745926
S     -0.222692    3.136308   -1.802674
H      0.062898    4.796238    3.613751
H     -0.037590    6.460344    1.774393
H     -0.164477    5.703825   -0.569088
H      0.045103    2.387251    3.103717
H      0.176134    0.676634    1.494124
H     -0.042635   -1.338967    0.334742
H     -0.000960   -5.831438   -0.590426
H     -0.223497   -1.232097   -3.967392
H     -0.273431    1.215630   -3.904684
