47

C     -0.231933   -6.213151    0.094656
C      1.093430   -6.649831   -0.450556
C      1.826365   -5.567106   -0.741377
C      3.208410   -5.515596   -1.130641
C      3.813904   -4.316321   -1.163015
C      3.080551   -3.059428   -0.885321
N      3.860450   -1.964602   -0.858073
C      3.242587   -0.779947   -0.632485
C      1.862057   -0.544640   -0.530724
C      1.321485    0.813724   -0.300531
C      2.136192    1.939316   -0.021808
C      1.624203    3.228589    0.205874
C      0.253256    3.483796    0.170845
C     -0.592019    2.406103   -0.104483
C     -0.076925    1.098740   -0.335104
C     -0.851999   -0.039682   -0.667928
C     -2.213653    0.008211   -0.877495
S     -2.830952   -1.491104   -1.424557
C     -1.274390   -2.204131   -1.385438
C     -0.317038   -1.369614   -0.850088
C      1.059434   -1.730912   -0.691664
C      1.681852   -3.023549   -0.712466
C      1.053049   -4.349357   -0.495127
C     -0.112809   -4.715183    0.066875
C     -0.280589    4.833118    0.412305
C      0.167886    5.933832   -0.336698
C     -0.340044    7.215692   -0.108692
C     -1.305165    7.418574    0.874344
C     -1.762902    6.341460    1.628816
C     -1.254938    5.059989    1.398828
H     -0.371969   -6.574549    1.117714
H     -1.057055   -6.557221   -0.535475
H      1.420641   -7.676586   -0.508511
H      3.751061   -6.431216   -1.334133
H      4.865016   -4.219539   -1.410632
H      3.962329    0.031361   -0.573187
H      3.216980    1.846825    0.050302
H      2.322001    4.034360    0.429824
H     -1.662684    2.587041   -0.153424
H     -2.894321    0.842484   -0.790180
H     -1.169986   -3.205590   -1.774785
H     -0.866655   -4.063427    0.479932
H      0.913232    5.796238   -1.117577
H      0.017292    8.053726   -0.701459
H     -1.700053    8.415351    1.052455
H     -2.513556    6.496901    2.399344
H     -1.618219    4.234711    2.008118
