39

F      1.338814    3.785676   -1.094564
C      0.031122    4.051838   -0.951294
C     -0.818646    3.117667   -0.335730
C     -0.319181    1.830834    0.183298
C     -0.954072    0.622414   -0.159765
C     -0.462849   -0.568689    0.355416
C     -0.980189   -1.973463    0.119357
C      0.804114    1.783563    1.045158
C      1.294990    0.576596    1.562025
C      0.654955   -0.597283    1.212841
C      0.925868   -1.971008    1.579875
C      1.907897   -2.515672    2.387825
C      1.930677   -3.904064    2.565388
C     -0.023598   -2.803598    0.950848
C     -0.009185   -4.179062    1.120122
C      0.973687   -4.738399    1.948511
C      1.047153   -6.226669    2.132559
C     -2.178010    3.455915   -0.231872
C     -2.649752    4.673309   -0.723443
F     -3.956417    4.950650   -0.609749
C     -1.794828    5.598705   -1.324143
C     -2.331803    6.885463   -1.870143
C     -0.441959    5.270769   -1.444030
H     -1.810336    0.609648   -0.828056
H     -0.905126   -2.240479   -0.938764
H     -2.004237   -2.075826    0.489993
H      1.309637    2.707095    1.324653
H      2.158077    0.575270    2.218868
H      2.649197   -1.890453    2.873352
H      2.705006   -4.340689    3.193361
H     -0.743466   -4.804114    0.621475
H      1.703107   -6.664951    1.374211
H      0.054328   -6.680772    2.047163
H      1.434473   -6.477962    3.125518
H     -2.886177    2.781310    0.242258
H     -2.810708    6.711191   -2.838612
H     -1.532711    7.622040   -2.004841
H     -3.063358    7.322080   -1.182225
H      0.260358    5.950039   -1.919149
