33

C     -1.387372    4.821078   -0.367416
C     -2.557764    3.908825   -0.691153
O     -2.158688    2.868674   -1.582564
C     -1.680418    1.701656   -1.060696
C     -1.415306    1.436600    0.277837
C     -0.917576    0.183431    0.669800
C     -0.670990   -0.830615   -0.262672
N     -0.168231   -2.100984    0.125474
C      0.094311   -3.162910   -0.840909
C      0.601855   -4.289107    0.009970
N      0.983410   -5.503575   -0.431348
C      1.406319   -6.353179    0.538963
C      1.458450   -6.035682    1.900267
C      1.054185   -4.767187    2.314713
C      0.623361   -3.899134    1.333278
C      0.140276   -2.520849    1.424589
O      0.063290   -1.944287    2.494124
C     -0.937792   -0.547490   -1.609384
C     -1.434058    0.702693   -2.000438
H     -1.711669    5.658747    0.256631
H     -0.592961    4.282881    0.157977
H     -0.945806    5.218301   -1.287467
H     -3.315764    4.496125   -1.222047
H     -3.052318    3.526220    0.208418
H     -1.572018    2.177404    1.054322
H     -0.729896    0.037385    1.729509
H     -0.833767   -3.451510   -1.343799
H      0.863079   -2.843327   -1.551103
H      1.715580   -7.335034    0.188181
H      1.809023   -6.768867    2.619647
H      1.074714   -4.469922    3.357419
H     -0.770825   -1.279928   -2.392872
H     -1.631477    0.896229   -3.052365
