40

C      3.971628   -4.162137    1.957126
C      5.028524   -4.680800    1.198683
C      4.836134   -4.160311   -0.089850
C      5.401508   -4.193225   -1.314333
S      4.434677   -3.197902   -2.364488
C      3.304453   -2.774348   -1.114491
C      2.166555   -1.920036   -1.288631
C      1.744817   -1.279050   -2.439161
C      0.580698   -0.573769   -2.052449
S     -0.617456    0.466377   -2.706575
C     -1.430071    0.573796   -1.147920
C     -0.780430   -0.179758   -0.158511
C      0.354062   -0.804088   -0.746312
O      1.316670   -1.631512   -0.248380
C     -1.310975   -0.201660    1.167295
C     -0.649929   -0.964416    2.160617
C     -1.127675   -1.017689    3.466704
C     -2.270498   -0.312678    3.804034
C     -2.934101    0.444929    2.834066
C     -2.484405    0.529284    1.490062
C     -3.139896    1.294407    0.475716
C     -4.316020    2.056463    0.700675
C     -4.939550    2.797436   -0.308267
C     -4.409900    2.806068   -1.587479
C     -3.257387    2.073883   -1.856687
C     -2.614721    1.318107   -0.843381
C      3.700755   -3.392394    0.019295
O      3.111621   -3.344084    1.248396
H      3.700339   -4.281724    2.997997
H      5.807161   -5.337388    1.558963
H      6.281903   -4.706657   -1.673647
H      2.202412   -1.309635   -3.416989
H      0.250299   -1.530424    1.930460
H     -0.604959   -1.609215    4.213268
H     -2.652266   -0.347242    4.821041
H     -3.824206    0.975062    3.160266
H     -4.780432    2.090760    1.682113
H     -5.839320    3.365589   -0.086484
H     -4.889195    3.379562   -2.376156
H     -2.869574    2.103622   -2.871849
