39

C     -0.354553   -0.492753    6.359015
C     -0.557085    0.168340    5.025431
C      0.464623    0.956070    4.474635
C      0.280102    1.598557    3.247692
C     -0.931396    1.448736    2.567430
S     -1.166527    2.283502    1.019349
O     -2.531730    2.086965    0.581071
O     -0.587047    3.602739    1.139331
N     -0.157431    1.425558   -0.004750
C     -0.536524    0.100345   -0.505836
C     -1.222397    0.222749   -1.867436
C     -0.270033    0.665051   -2.980327
C      0.976429   -0.220494   -3.080136
C      0.672829   -1.569546   -3.705428
O      0.908931   -2.663720   -3.230090
O      0.129521   -1.465789   -4.939213
C      1.668032   -0.368786   -1.719245
C      0.716687   -0.775240   -0.589749
C     -1.963318    0.678459    3.109579
C     -1.772726    0.039696    4.337817
H     -1.165918   -1.192674    6.588395
H     -0.321698    0.262055    7.150159
H      0.581713   -1.057170    6.367543
H      1.407736    1.078597    5.005494
H      1.075194    2.214309    2.833307
H      0.550091    1.983290   -0.467887
H     -1.229042   -0.370300    0.200914
H     -1.655143   -0.752229   -2.132988
H     -2.059215    0.930052   -1.818969
H     -0.817779    0.680884   -3.929534
H      0.043255    1.700738   -2.795332
H      1.693456    0.257214   -3.761201
H      0.014668   -2.394924   -5.229887
H      2.138333    0.587141   -1.458990
H      2.481080   -1.101615   -1.781640
H      1.262443   -0.749431    0.361845
H      0.407293   -1.816757   -0.740017
H     -2.914352    0.574985    2.590590
H     -2.581990   -0.554747    4.758278
