43

C     -2.397332    4.086210   -2.120513
O     -1.243918    4.490657   -1.394551
C     -0.395956    3.507715   -0.955185
C     -0.648037    2.138536   -1.044650
C      0.288944    1.208149   -0.565399
C     -0.049605   -0.238860   -0.693831
O     -1.089164   -0.632676   -1.200950
O      0.967919   -1.006334   -0.161210
C      0.738238   -2.381785   -0.246850
C      0.976295   -3.053075   -1.444997
C      0.809870   -4.440347   -1.501591
C      1.017416   -5.177889   -2.791103
C      0.391350   -5.126770   -0.350674
C      0.156430   -4.446468    0.854723
C     -0.246403   -5.202909    2.085703
C      0.354527   -3.063178    0.906082
C      1.492107    1.652472    0.006418
C      1.761436    3.019267    0.103521
O      2.901563    3.555253    0.644214
C      3.965292    2.665397    0.954560
C      0.803432    3.937338   -0.361978
O      1.084422    5.285343   -0.308597
C      0.590243    5.835554    0.911293
H     -2.917232    4.990140   -2.452200
H     -3.085135    3.522844   -1.481639
H     -2.124588    3.512736   -3.012663
H     -1.569665    1.765435   -1.482890
H      1.284932   -2.497725   -2.325832
H      0.077869   -5.225419   -3.350118
H      1.371439   -6.197303   -2.604997
H      1.772192   -4.680364   -3.409183
H      0.246637   -6.205168   -0.393835
H     -0.856041   -6.074694    1.825890
H     -0.846654   -4.574548    2.752109
H      0.643768   -5.540692    2.625129
H      0.202331   -2.516787    1.832197
H      2.208094    0.925474    0.373706
H      4.819072    3.266237    1.282320
H      3.690763    2.000204    1.779574
H      4.277715    2.095494    0.073165
H     -0.498909    5.741341    0.980557
H      1.066371    5.370332    1.781359
H      0.837482    6.901329    0.921682
