34

C      3.209890    3.358581   -2.972941
C      4.320456    3.011856   -2.231179
N      4.364869    1.959191   -1.385524
C      3.280682    1.194266   -1.246827
N      3.340601    0.158539   -0.408712
C      2.247370   -0.626456   -0.256845
C      1.036601   -0.429226   -0.907012
C     -0.109818   -1.301126   -0.685037
C     -0.465216   -2.296665   -1.619783
C     -1.561104   -3.136100   -1.411226
C     -2.347529   -3.015227   -0.265046
C     -1.984561   -2.023258    0.644177
O     -2.640623   -1.766997    1.805176
C     -1.998975   -0.734049    2.412541
N     -2.398741   -0.226060    3.593108
C     -1.627683    0.795332    4.021299
C     -0.526762    1.313155    3.353367
C     -0.151016    0.755774    2.130661
C     -0.916601   -0.316784    1.637431
C     -0.901895   -1.162247    0.482186
C      0.978003    0.650588   -1.785730
C      2.100535    1.474717   -1.963744
C      2.076295    2.573195   -2.835115
H      3.227989    4.214765   -3.637560
H      5.239894    3.587648   -2.294778
H      2.382331   -1.450727    0.440598
H      0.128500   -2.423565   -2.524667
H     -1.805703   -3.896687   -2.150141
H     -3.201979   -3.657180   -0.083756
H     -1.933003    1.218290    4.976277
H      0.033981    2.139744    3.778341
H      0.705774    1.146473    1.591231
H      0.056626    0.856827   -2.326497
H      1.182005    2.816615   -3.402735
