29

O      1.235170   -0.807105   -0.035913
C      0.643489   -1.748219    0.476017
N     -0.707425   -1.860817    0.710032
C     -1.586473   -0.850333    0.434498
N     -1.362574    0.358923   -0.002855
C     -2.560850    1.037297   -0.131169
C     -2.606330    2.523221   -0.644395
C     -3.750075    3.277754   -0.804055
C     -3.464047    4.590660   -1.286864
C     -2.114464    4.787177   -1.476791
S     -1.202505    3.397041   -1.074906
C     -3.681841    0.312335    0.223486
S     -3.217880   -1.260725    0.731402
C      1.442543   -2.946164    0.864440
C      2.561925   -3.280107    0.089325
C      3.338614   -4.394211    0.417524
C      3.002886   -5.167876    1.526934
Cl     3.957464   -6.539651    1.933643
C      1.901846   -4.833299    2.315750
C      1.121550   -3.719432    1.989339
H     -1.113757   -2.726284    1.027089
H     -4.750002    2.923690   -0.590991
H     -4.209946    5.350716   -1.484473
H     -1.615142    5.678066   -1.832050
H     -4.719192    0.610250    0.214009
H      2.830610   -2.670267   -0.772247
H      4.202918   -4.646251   -0.191713
H      1.655058   -5.428503    3.191645
H      0.293250   -3.452869    2.640008
