31

C     -5.655252   -3.354567   -1.106483
C     -5.082523   -3.775960    0.075285
N     -3.907666   -3.282242    0.522180
C     -3.315325   -2.348426   -0.249644
C     -2.101743   -1.794782    0.148417
C     -1.433967   -0.819525   -0.608875
C     -0.151288   -0.263988   -0.145018
C      0.594272   -0.542755    1.000608
C      1.756441    0.258068    0.987786
N      2.791493    0.362196    1.863196
C      3.750574    1.259868    1.507850
C      4.952479    1.649015    2.133825
C      5.516364    2.599527    1.309421
O      4.737904    2.822065    0.213011
C      3.656640    2.003624    0.331742
N      2.640877    1.918639   -0.552369
C      1.711035    1.021464   -0.168730
N      0.566067    0.700087   -0.836895
C     -2.032459   -0.407128   -1.803104
C     -3.252431   -0.955529   -2.215161
C     -3.904880   -1.918063   -1.461154
N     -5.078289   -2.421032   -1.893115
H     -6.598652   -3.756803   -1.456888
H     -5.553072   -4.525964    0.700343
H     -1.681570   -2.151961    1.085314
H      0.337829   -1.250589    1.776733
H      5.354058    1.282235    3.066285
H      6.424238    3.185502    1.357097
H      0.307130    1.125544   -1.713269
H     -1.578694    0.342476   -2.444221
H     -3.704410   -0.623478   -3.147022
