45

Si    -3.514405   -3.676369    3.954132
C     -4.844490   -4.385898    2.851041
C     -4.813096   -3.809541    1.635301
C     -5.731226   -4.104819    0.555187
C     -5.605381   -3.430979   -0.602194
C     -4.563459   -2.427514   -0.805843
C     -3.651961   -2.098825    0.142821
C     -2.625025   -1.094909   -0.217231
C     -1.275449   -1.406022   -0.095291
C     -0.417705   -0.388064   -0.479333
O      0.949467   -0.454708   -0.441206
C      1.434603    0.744627   -0.897278
C      0.348822    1.530208   -1.210469
C     -0.844157    0.846442   -0.959599
C     -2.214616    1.068804   -1.063095
N     -3.086119    0.093047   -0.697004
C      0.571188    2.840959   -1.713377
N     -0.420919    3.654808   -2.037500
S      0.391618    5.025670   -2.556557
N      1.979997    4.538621   -2.352198
C      1.953863    3.277807   -1.867047
C      3.087021    2.459152   -1.539913
C      4.440123    2.936569   -1.709267
C      5.587613    2.174899   -1.404063
C      5.266635    0.906356   -0.919615
C      6.235566    0.001746   -0.561502
S      5.541782   -1.466185   -0.004509
C      3.939828   -0.886677   -0.244708
C      3.923619    0.397788   -0.738276
C      2.769328    1.143179   -1.036969
C     -3.756113   -2.783101    1.441349
C     -2.995291   -2.568607    2.535154
H     -4.068063   -2.911960    5.097457
H     -2.470127   -4.672438    4.295361
H     -5.530313   -5.140215    3.201655
H     -6.508111   -4.847199    0.696410
H     -6.283099   -3.620142   -1.428891
H     -4.546222   -1.950588   -1.783460
H     -0.914756   -2.360007    0.262075
H     -2.648888    1.993232   -1.427740
H      4.590786    3.946634   -2.096330
H      6.591933    2.555562   -1.539921
H      7.311139    0.110623   -0.592007
H      3.113659   -1.540042   -0.003062
H     -2.190714   -1.862158    2.656877
