36

Si    -2.435933   -4.920546    1.502596
C     -3.407891   -4.517872    3.091988
C     -3.185041   -3.254459    3.510127
C     -2.283357   -2.564129    2.649751
S     -1.737009   -0.958938    2.813628
C     -0.785293   -1.099181    1.404066
C      0.119218    0.001799    0.777057
S      0.378398    1.576349    1.324394
C      1.470240    1.948771    0.015547
C      1.607180    0.838792   -0.816661
C      0.832509   -0.242971   -0.359981
C      0.700614   -1.549587   -0.930320
C      1.356800   -1.935115   -2.068983
S      0.957880   -3.569531   -2.455733
C     -0.087393   -3.723124   -1.085163
C     -0.116600   -2.555420   -0.370146
C     -0.886818   -2.347014    0.825441
C     -1.738565   -3.181653    1.532714
C      2.084736    3.286772   -0.069373
C      1.869979    4.340226    0.839394
N      2.402695    5.610243    0.829540
C      3.263297    5.991579   -0.151790
C      3.586997    5.051975   -1.146889
N      4.414446    5.256119   -2.184354
S      4.445118    3.841934   -3.044594
N      3.414500    2.912786   -2.142467
C      2.984380    3.662236   -1.108654
H     -1.425008   -5.979462    1.742871
H     -3.349994   -5.183614    0.364049
H     -4.043861   -5.256364    3.553567
H     -3.629996   -2.806488    4.389897
H      2.231427    0.819199   -1.699354
H      2.038131   -1.384293   -2.702066
H     -0.590055   -4.663224   -0.926283
H      1.203011    4.201980    1.690916
H      3.656967    6.998690   -0.119446
