47

C      1.073740    5.718628   -1.511765
C     -0.269519    5.512873   -1.326823
C     -0.457965    4.151660   -0.932667
C      0.808067    3.570952   -0.836988
N      1.708383    4.541743   -1.232402
C      0.985573    2.220331   -0.467041
C      2.220207    1.601787   -0.160075
C      3.392669    2.280033    0.099105
S      4.700302    1.235034    0.462669
C      3.695659   -0.145073    0.359164
C      2.389632    0.178339    0.057112
C      1.361652   -0.789061   -0.081385
C      1.571302   -2.233401    0.046673
C      0.602365   -3.237014   -0.211493
C      0.843472   -4.672529   -0.073009
N     -0.199268   -5.506810   -0.082037
C      0.108001   -6.792644    0.073847
N      1.329135   -7.292510    0.232991
C      2.287806   -6.372288    0.231211
N      2.114713   -5.060277    0.088839
C     -0.554599   -2.612612   -0.682997
C     -1.666728   -3.222400   -1.211856
O     -2.525159   -2.287379   -1.702776
C     -1.963788   -1.067232   -1.480892
C     -0.787079   -1.192334   -0.777473
C      0.097849   -0.136808   -0.394707
C     -0.144299    1.344453   -0.391835
C     -1.428041    1.991565   -0.271629
C     -2.583690    1.358148    0.249082
C     -3.832611    1.986366    0.325799
C     -3.972234    3.300941   -0.086308
C     -2.852689    3.997657   -0.525918
C     -1.586773    3.369298   -0.583750
H      1.628197    6.591655   -1.828981
H     -1.039179    6.258911   -1.473048
H      2.695933    4.389802   -1.370009
H      3.588153    3.338545    0.143024
H      4.141837   -1.111216    0.543459
H      2.559467   -2.582142    0.348765
H     -0.715908   -7.498353    0.070793
H      3.306398   -6.722745    0.358985
H     -1.977926   -4.246367   -1.363692
H     -2.519067   -0.237289   -1.895264
H     -2.521086    0.350015    0.653973
H     -4.687471    1.443513    0.721178
H     -4.938223    3.794732   -0.031150
H     -2.970193    5.043745   -0.796063
