34

C     -1.647316   -0.503694   -2.255267
C     -2.889311   -0.787447   -2.774449
C     -3.091938   -0.819232   -4.153994
C     -2.067905   -0.570765   -5.021226
C     -0.814588   -0.284640   -4.478114
C     -0.582828   -0.245743   -3.126850
N      0.720225    0.052707   -2.648239
B      0.979654    0.096467   -1.154827
C     -0.228076   -0.195709   -0.209231
C     -1.455159   -0.475286   -0.791548
C     -2.502695   -0.729154    0.068837
C     -2.307437   -0.699032    1.444828
C     -1.057279   -0.413635    1.987861
C      0.006414   -0.156311    1.155044
C      1.338829    0.148032    1.719424
C      1.520025    0.175003    3.084010
C      2.768390    0.459841    3.640375
C      3.858012    0.722788    2.845939
C      3.653044    0.690192    1.488674
C      2.440367    0.414019    0.901600
N      2.314539    0.400637   -0.523653
H     -3.755931   -0.996060   -2.188878
H     -4.067018   -1.041726   -4.586009
H     -2.219060   -0.593957   -6.096718
H     -0.015131   -0.090358   -5.182439
H      1.526116    0.247645   -3.277084
H     -3.467958   -0.949582   -0.344589
H     -3.130792   -0.898304    2.097388
H     -0.908243   -0.390726    3.045457
H      0.748922   -0.012800    3.799638
H      2.922217    0.483708    4.712310
H      4.831214    0.944755    3.287574
H      4.484996    0.891840    0.803344
H      3.124589    0.596605   -1.157490
