33

O     -0.940325    1.543082   -3.503727
C     -0.517983    1.915268   -2.406407
C      0.617420    2.850936   -2.366412
C      0.945610    3.727825   -3.461104
N      2.025958    4.494947   -3.305744
S      2.628255    4.064561   -1.807879
N      1.505295    2.909762   -1.359036
N     -1.119002    1.460798   -1.228180
C     -0.723737    1.788774    0.146481
C      0.108641    0.642953    0.757675
N     -0.644785   -0.641671    0.659618
C     -0.069037   -1.686995    1.402838
C      0.061984   -1.554831    2.796467
C      0.619326   -2.566857    3.585042
C      1.055354   -3.746467    2.993910
C      0.925411   -3.911742    1.619346
C      0.364537   -2.894886    0.836218
C     -1.116738   -0.950224   -0.715253
C     -1.921116    0.235263   -1.291587
H      0.390268    3.813572   -4.386516
H     -1.651994    1.905911    0.721015
H     -0.210237    2.747688    0.213864
H      1.062397    0.541725    0.224961
H      0.327839    0.907541    1.797532
H     -0.302380   -0.658464    3.291840
H      0.701323   -2.432006    4.659969
H      1.487620   -4.536263    3.601775
H      1.259756   -4.832757    1.149110
H      0.294465   -3.071065   -0.232344
H     -0.257911   -1.148698   -1.369207
H     -1.766667   -1.833254   -0.705560
H     -2.231009    0.007391   -2.315913
H     -2.828790    0.402068   -0.699270
