38

O     -1.139151   -0.534256    1.424748
C      0.004034   -0.917170    1.179196
N      0.787905   -0.278456    0.220290
N      0.096084    0.534868   -0.714811
C     -0.079335    1.892798   -0.507216
C      0.444861    2.521372    0.779668
C     -0.644904    3.282428    1.479988
C     -1.756637    2.787506    2.134334
C     -2.566739    3.820715    2.687667
C     -2.044781    5.070555    2.444579
S     -0.586228    4.994997    1.557264
N     -0.632001    2.659152   -1.400829
C     -1.119321    2.083757   -2.582167
C     -1.786206    2.897627   -3.499860
C     -2.281424    2.366992   -4.694862
C     -2.111295    1.012741   -4.983991
C     -1.446983    0.187930   -4.077558
C     -0.960086    0.731122   -2.883458
C     -0.247064   -0.102242   -1.904043
O      0.061397   -1.265352   -2.160682
C      0.657086   -2.037360    1.848277
C      1.980457   -2.447167    1.827127
C      2.209732   -3.606421    2.627142
C      1.059403   -4.044320    3.240737
S     -0.283434   -3.061185    2.858799
H      1.485930   -0.864850   -0.229853
H      0.858093    1.784963    1.472634
H      1.273354    3.183797    0.499436
H     -1.988162    1.731169    2.209542
H     -3.486446    3.652779    3.234076
H     -2.449210    6.027071    2.744912
H     -1.921299    3.953616   -3.277649
H     -2.800748    3.013444   -5.398470
H     -2.497377    0.601558   -5.913743
H     -1.312787   -0.868371   -4.298477
H      2.767245   -1.946434    1.276755
H      3.170777   -4.091873    2.749104
H      0.940700   -4.893313    3.900473
