48

C      2.955614    0.704686   -4.127507
C      3.474036    0.360628   -2.764707
C      2.449929    0.238641   -1.901360
C      2.459749   -0.147942   -0.475768
C      3.710763   -0.463377    0.172376
C      3.815157   -0.961297    1.485818
C      5.064901   -1.304558    2.124835
C      5.928225   -2.352865    1.872038
N      7.070453   -2.396321    2.650592
C      7.061536   -1.375230    3.478851
S      5.711943   -0.322313    3.374258
C      2.558291   -1.174320    2.051896
C      2.302025   -1.766808    3.265308
N      0.938453   -1.857415    3.390920
C      0.325158   -1.344945    2.267203
C      1.299838   -0.852202    1.427438
C      1.160152   -0.252228    0.154360
C     -0.094428    0.192209   -0.519045
C     -1.297941    0.414776    0.168569
C     -2.490822    0.792716   -0.502204
C     -3.774413    1.011679    0.077265
C     -4.062738    0.887112    1.417069
S     -5.717178    1.222216    1.750154
C     -6.061850    1.536927    0.097050
C     -4.940469    1.388508   -0.681155
C     -4.962277    1.588472   -2.057514
C     -3.688896    1.382298   -2.634166
C     -2.501328    1.005043   -1.909999
C     -1.282191    0.860727   -2.580199
C     -0.095346    0.492662   -1.909764
C      1.201008    0.493547   -2.610114
C      1.476285    0.760183   -3.899301
H      3.340454    1.671797   -4.463832
H      3.213989   -0.069539   -4.855759
H      4.522277    0.216746   -2.556994
H      4.638715   -0.324241   -0.380264
H      5.769695   -3.122434    1.125895
H      7.859444   -1.200776    4.188629
H      2.951877   -2.158815    4.036473
H      0.454738   -2.283410    4.171239
H     -0.748303   -1.424815    2.186635
H     -1.329041    0.340280    1.247374
H     -3.409929    0.620511    2.235333
H     -7.064327    1.811016   -0.201552
H     -5.829402    1.872302   -2.638614
H     -3.609848    1.527167   -3.713668
H     -1.249915    1.063815   -3.647805
H      0.771013    1.004681   -4.677389
