28

O     -1.361478   -2.008690   -3.860685
C     -1.249320   -1.149350   -2.987755
N     -0.588149   -1.248670   -1.758806
C      0.043985   -2.451005   -1.395984
C      0.155747   -3.660772   -2.057610
C      0.893532   -4.635663   -1.319943
C      1.326300   -4.144672   -0.111489
S      0.844279   -2.524743    0.125702
N     -0.512553   -0.198557   -0.861108
C     -1.076549    0.928099   -1.158343
C     -0.981367    2.055217   -0.186096
C     -0.926907    1.754224    1.183170
C     -0.831590    2.776954    2.128829
C     -0.780876    4.105974    1.711480
C     -0.817259    4.404900    0.350369
Cl    -0.737706    6.045993   -0.163038
C     -0.912720    3.389761   -0.602408
C     -1.838175    1.166451   -2.398130
C     -1.902405    0.152762   -3.259841
H     -0.265446   -3.864258   -3.033647
H      1.093009   -5.642965   -1.664066
H      1.902897   -4.657876    0.645480
H     -0.959372    0.719052    1.520587
H     -0.792426    2.534975    3.188387
H     -0.703966    4.900702    2.449271
H     -0.904929    3.652530   -1.655588
H     -2.343848    2.103088   -2.584281
H     -2.445560    0.224804   -4.194002
