40

C      2.794436    0.442399   -1.733287
C      2.338457   -0.151880   -0.395865
C      3.048109   -1.480983   -0.113697
C      2.557003    0.840774    0.748734
C      3.747973    1.384359    1.210250
C      3.695057    2.280805    2.279208
C      2.467658    2.621955    2.869657
C      1.270296    2.072108    2.401634
C      1.320867    1.181672    1.340980
C      0.259127    0.470079    0.661354
C     -1.110597    0.479961    0.879405
C     -1.942740   -0.311450    0.066605
C     -3.398486   -0.321111    0.284459
C     -3.914094   -0.967090    1.424412
C     -5.287201   -1.003799    1.676477
C     -6.173155   -0.393846    0.794285
C     -5.685832    0.253890   -0.340401
C     -4.306266    0.295182   -0.601131
C     -3.859634    0.985680   -1.779540
N     -3.534338    1.543300   -2.744594
C     -1.363519   -1.104277   -0.950497
C      0.016542   -1.113692   -1.172371
C      0.817477   -0.323959   -0.362128
H      3.873677    0.633877   -1.737560
H      2.292230    1.394287   -1.945443
H      2.575787   -0.235532   -2.566385
H      4.135419   -1.350650   -0.066638
H      2.837443   -2.219680   -0.895612
H      2.728814   -1.915404    0.841622
H      4.698742    1.125204    0.756207
H      4.613761    2.721837    2.659011
H      2.448999    3.323678    3.700245
H      0.328118    2.344599    2.864559
H     -1.535920    1.096974    1.665373
H     -3.236912   -1.454940    2.124725
H     -5.662415   -1.510826    2.562466
H     -7.242609   -0.421545    0.989545
H     -6.388386    0.730360   -1.022637
H     -1.997320   -1.725613   -1.581533
H      0.441754   -1.724382   -1.962263
