46

C      1.661215   -1.392654    3.919849
C      0.906588   -1.241777    2.634687
C      1.161406   -0.046220    2.081645
C      0.640789    0.588724    0.908346
C      0.799654    1.973759    0.818756
S     -0.126313    2.639487   -0.457356
C     -0.595552    1.091221   -1.048803
C     -1.413631    0.823150   -2.188745
C     -1.681756   -0.487370   -2.640850
C     -2.514116   -0.788123   -3.801171
C     -2.163298   -0.321825   -5.077990
C     -2.964436   -0.598307   -6.188964
C     -4.132379   -1.342265   -6.038567
C     -4.500140   -1.809083   -4.778916
C     -3.697420   -1.532349   -3.669359
C     -1.003424   -1.437012   -1.873771
C     -0.948184   -2.790415   -2.135347
N     -0.101622   -3.369372   -1.212597
C      0.403732   -2.406503   -0.364768
C     -0.190033   -1.235543   -0.737517
C     -0.023264    0.108825   -0.247346
C      1.637721    2.803737    1.725832
C      1.855210    4.176967    1.532112
C      2.691036    4.895388    2.390946
C      3.325431    4.253322    3.450618
C      3.123566    2.889433    3.662964
C      2.282824    2.156521    2.813579
C      1.999591    0.721509    3.013399
C      2.318505   -0.054959    4.063822
H      2.399994   -2.196609    3.855804
H      0.979136   -1.583736    4.753618
H      0.222204   -1.987184    2.265562
H     -1.842420    1.665157   -2.730958
H     -1.251330    0.255995   -5.214743
H     -2.674454   -0.232349   -7.170307
H     -4.756372   -1.556390   -6.902136
H     -5.412912   -2.385977   -4.656722
H     -4.002571   -1.897064   -2.690364
H     -1.398865   -3.395689   -2.910818
H      0.152902   -4.348428   -1.196425
H      1.153006   -2.668043    0.366098
H      1.389472    4.710824    0.708376
H      2.850219    5.958245    2.225971
H      3.977915    4.815226    4.114172
H      3.628329    2.411847    4.497459
H      2.889339    0.234041    4.932093
