28

C     -2.766588    1.563414   -3.216028
N     -1.827323    0.489750   -2.896978
C     -1.046797   -0.019605   -4.023677
C     -1.276732    0.424941   -1.609826
C     -0.207893   -0.437400   -1.296479
C      0.353463   -0.531009   -0.004532
C      1.426211   -1.395664    0.272630
C      1.969741   -1.474666    1.557463
C      1.446933   -0.690489    2.583871
C      2.001517   -0.769633    3.900435
C      2.466757   -0.835995    5.005498
C      0.379477    0.171957    2.324407
C     -0.173759    0.258348    1.034902
C     -1.245690    1.108821    0.752413
C     -1.783747    1.181287   -0.540617
H     -3.657578    1.513409   -2.580912
H     -2.292636    2.545598   -3.111204
H     -3.129840    1.479261   -4.246558
H     -0.080470    0.491550   -4.097374
H     -0.887595   -1.099839   -3.939112
H     -1.572172    0.131854   -4.973446
H      0.215956   -1.074130   -2.067368
H      1.848026   -2.016740   -0.514448
H      2.799631   -2.150610    1.748041
H      2.879157   -0.895006    5.985666
H     -0.025160    0.779582    3.130987
H     -1.681890    1.725392    1.534947
H     -2.621348    1.857459   -0.680465
