42

C     -0.900000   -6.529179    0.475651
S     -0.869786   -6.105360   -1.189226
C     -0.699963   -4.430284   -0.837123
C     -0.655264   -4.193978    0.518184
C     -0.524844   -2.922001    1.107702
C     -0.541788   -3.004657    2.525631
C     -0.666654   -4.226430    3.263949
C     -0.792151   -5.497431    2.666102
C     -0.782684   -5.418302    1.273920
C     -0.392087   -1.668985    0.374821
C     -1.419123   -0.710773    0.409476
C     -1.311417    0.501852   -0.282228
C     -0.155722    0.786129   -1.029737
C     -0.017126    2.008252   -1.743645
N     -0.855566    3.097033   -1.883638
C     -0.290530    4.070187   -2.686270
C     -0.801128    5.314474   -3.076959
C     -0.006207    6.111358   -3.905692
C      1.249160    5.680042   -4.326371
C      1.746656    4.433929   -3.928036
C      0.965861    3.610323   -3.092528
C      1.095106    2.344279   -2.494001
C      2.186900    1.421169   -2.572462
N      3.290028    1.657710   -3.266421
S      4.192484    0.273141   -3.006344
N      3.156023   -0.590704   -2.017796
C      2.050924    0.168366   -1.844507
C      0.893961   -0.169633   -1.069863
C      0.765806   -1.385823   -0.365101
H     -1.005271   -7.565554    0.765297
H     -0.643129   -3.723626   -1.653614
H     -0.442913   -2.081193    3.099064
H     -0.661232   -4.166379    4.352934
H     -0.885350   -6.409172    3.240913
H     -2.325855   -0.913087    0.978242
H     -2.137376    1.204498   -0.224824
H     -1.766638    3.179353   -1.457888
H     -1.778759    5.656168   -2.752596
H     -0.374150    7.083291   -4.226911
H      1.852139    6.314891   -4.971093
H      2.727953    4.110058   -4.264013
H      1.578833   -2.110817   -0.394678
