40

C     -0.406189    1.940176   -3.122100
C      0.955391    1.303429   -2.892664
N      0.875015   -0.161799   -3.151441
C      0.933681   -0.501028   -4.602971
C     -0.291884   -1.318839   -4.972098
S      1.911015   -1.126501   -2.183236
O      3.224912   -0.519671   -2.223334
O      1.710232   -2.514667   -2.540700
C      1.228413   -0.909260   -0.558547
C      1.974641   -0.293463    0.445498
C      1.417446   -0.129497    1.718914
C      0.123249   -0.581940    1.994638
N     -0.507118   -0.462657    3.251214
C     -0.042891    0.202320    4.379501
O      0.992670    0.860949    4.407352
C     -0.924848    0.069769    5.541502
C     -1.887461   -0.883348    5.834474
C     -2.535167   -0.646057    7.083637
C     -2.044343    0.473838    7.713232
S     -0.806834    1.226293    6.808525
C     -0.607000   -1.213233    0.975855
C     -0.060189   -1.377719   -0.299265
H     -1.165969    1.477468   -2.483309
H     -0.368579    3.009108   -2.890273
H     -0.731620    1.831767   -4.161392
H      1.247359    1.503544   -1.857577
H      1.711617    1.765690   -3.536817
H      1.847012   -1.056520   -4.843120
H      0.960027    0.405151   -5.218263
H     -0.335577   -2.252098   -4.401970
H     -1.211769   -0.761028   -4.767841
H     -0.274389   -1.570615   -6.036911
H      2.985467    0.060714    0.254280
H      2.030996    0.348809    2.476825
H     -1.434544   -0.856837    3.312563
H     -2.116694   -1.732505    5.202907
H     -3.314593   -1.270905    7.503217
H     -2.344964    0.884492    8.667697
H     -1.612476   -1.584864    1.157738
H     -0.634987   -1.868649   -1.081802
