31

O      1.097801    0.636824   -1.419621
C      0.687145   -0.461663   -1.063288
C      1.449557   -1.682654   -1.382710
C      2.657763   -1.605663   -2.086503
C      3.366044   -2.772912   -2.379921
C      2.857856   -4.002257   -1.966565
O      3.516576   -5.165942   -2.231843
C      1.657465   -4.084571   -1.267057
C      0.952267   -2.917984   -0.974975
O     -0.224642   -3.051817   -0.285328
C     -0.924021   -1.907034    0.011289
C     -0.579139   -0.646575   -0.297997
C     -1.447644    0.483479    0.082149
C     -1.824249    1.442489   -0.866595
C     -2.654879    2.510960   -0.514417
C     -3.115440    2.649670    0.798600
C     -4.030123    3.779275    1.168250
C     -2.749500    1.691683    1.749167
C     -1.918273    0.623686    1.396375
H      3.045675   -0.639835   -2.404121
H      4.302103   -2.702845   -2.925775
H      4.331594   -4.963042   -2.720533
H      1.276131   -5.051802   -0.952948
H     -1.831144   -2.172129    0.541876
H     -1.470568    1.370859   -1.893525
H     -2.932250    3.237718   -1.274803
H     -5.072128    3.482341    1.014735
H     -3.821243    4.666070    0.560637
H     -3.894134    4.065160    2.216583
H     -3.103028    1.773435    2.774632
H     -1.635809   -0.091718    2.165546
