47

C     -1.601854    1.122229   -5.842810
C     -0.699428    0.264585   -6.683222
C      0.137052   -0.411681   -5.884585
C      1.169680   -1.347580   -6.241932
C      1.901422   -1.918377   -5.266686
C      1.673338   -1.609391   -3.827832
C      2.472907   -2.241072   -2.865585
C      2.261636   -1.952752   -1.502279
S      3.138941   -2.624356   -0.150763
C      2.224970   -1.738960    0.926650
C      2.217519   -1.629668    2.332107
C      1.235734   -0.746450    2.632102
C      0.525783   -0.209473    1.379721
C      1.278538   -0.949973    0.326623
C      1.269691   -1.047958   -1.085734
C      0.470225   -0.417767   -2.066668
C      0.669655   -0.695565   -3.426143
C     -0.130206   -0.071693   -4.492958
C     -1.135920    0.817168   -4.445912
C      0.850495   -0.314056    3.973919
C      1.649554    0.663367    4.585957
C      1.336688    1.138198    5.855173
C      0.223516    0.638544    6.526638
C     -0.588275   -0.347326    5.944718
C     -1.702741   -0.845690    6.640119
C     -2.514855   -1.832659    6.083370
C     -2.221324   -2.337971    4.823903
C     -1.118059   -1.852026    4.118937
C     -0.279812   -0.844395    4.653131
H     -1.469846    2.182245   -6.078697
H     -2.650408    0.841127   -5.977791
H     -0.733637    0.213673   -7.760330
H      1.342683   -1.578425   -7.286751
H      2.684932   -2.626759   -5.515222
H      3.247663   -2.945044   -3.154975
H      2.866069   -2.155434    3.016780
H     -0.536476   -0.469411    1.370331
H      0.657766    0.872296    1.281730
H     -0.297723    0.282078   -1.752483
H     -1.563652    1.260321   -3.560822
H      2.519529    1.064942    4.070016
H      1.958283    1.898147    6.321262
H     -0.004986    1.023961    7.518292
H     -1.946579   -0.467500    7.630801
H     -3.371645   -2.208438    6.636239
H     -2.845703   -3.113033    4.387161
H     -0.911834   -2.279897    3.140163
