44

C      1.267678    4.147139    3.747315
C      1.095508    5.244562    4.801869
C     -0.211502    5.490169    5.045421
C     -1.002115    4.640268    4.234211
C     -2.334066    4.438894    4.048790
S     -2.562265    3.204645    2.865228
C     -0.856944    2.967389    2.627339
C     -0.369218    1.989626    1.685722
C      0.950496    1.681116    1.381413
C      0.850066    0.668218    0.409583
N      1.577908   -0.161773   -0.391800
C      0.700006   -0.941925   -1.135427
C     -0.613875   -0.598287   -0.797319
C     -0.446350    0.413769    0.173323
O     -1.233245    1.208164    0.940871
C     -1.696057   -1.258229   -1.424215
C     -3.007988   -0.885987   -1.058624
C     -4.106682   -1.503745   -1.644909
C     -3.907148   -2.493201   -2.596191
C     -2.607939   -2.867070   -2.963275
C     -1.452322   -2.269498   -2.396712
C     -0.102117   -2.621802   -2.743411
C      0.223310   -3.630846   -3.714333
C      1.525014   -4.021309   -4.097370
C      2.585996   -3.350512   -3.459882
N      3.890894   -3.570782   -3.679505
S      4.715819   -2.531269   -2.686483
N      3.455388   -1.756304   -1.934517
C      2.319475   -2.285178   -2.435279
C      0.974115   -1.935814   -2.091437
C     -0.157564    3.822648    3.444269
H      1.800611    3.289706    4.167627
H      1.792905    4.535245    2.870169
H      1.923130    5.747376    5.279666
H     -0.601259    6.216264    5.744811
H     -3.178296    4.922889    4.518460
H      1.843793    2.119749    1.796980
H      2.589875   -0.198970   -0.433788
H     -3.181675   -0.111375   -0.313792
H     -5.113088   -1.211449   -1.357981
H     -4.761736   -2.980665   -3.058900
H     -2.525798   -3.647885   -3.713501
H     -0.580946   -4.163718   -4.220981
H      1.700569   -4.791890   -4.838388
