31

Br     4.017395    3.574675    2.228780
C      2.757308    2.230922    1.805973
C      2.086678    2.271650    0.584859
C      1.154506    1.277849    0.271948
C      0.881001    0.247549    1.182640
C     -0.082020   -0.805251    0.875354
N      0.163709   -2.099500    0.936545
N     -0.964497   -2.777035    0.556208
C     -1.906671   -1.896753    0.288864
N     -1.401386   -0.639368    0.518629
C     -2.159581    0.587659    0.490696
C     -2.653622    0.963687   -0.902981
C     -3.416600   -0.136001   -1.651170
C     -4.150161   -1.115276   -0.736933
C     -3.271054   -2.247637   -0.203222
C      1.579858    0.210126    2.397028
C      2.511838    1.202392    2.712786
H      2.290111    3.062407   -0.132579
H      0.661350    1.304055   -0.696761
H     -1.553171    1.402004    0.897512
H     -2.994311    0.465371    1.190644
H     -1.810115    1.286386   -1.525613
H     -3.308152    1.838582   -0.801365
H     -2.727853   -0.684693   -2.305851
H     -4.141429    0.348210   -2.317352
H     -4.969448   -1.575589   -1.304401
H     -4.633438   -0.580240    0.089002
H     -3.810924   -2.764308    0.599608
H     -3.144763   -2.985121   -1.007176
H      1.401715   -0.601161    3.101598
H      3.042101    1.156434    3.660375
