47

C     -4.271545   -4.191493   -1.342853
C     -4.127790   -4.565787   -2.790373
C     -3.299115   -3.699367   -3.386865
C     -2.881958   -3.627464   -4.764003
C     -2.055823   -2.623781   -5.118065
C     -1.571534   -1.634896   -4.149041
C     -1.910307   -1.653956   -2.834231
C     -1.328611   -0.624439   -1.946542
C     -0.670717   -0.991901   -0.779359
C     -0.143131    0.054311   -0.021656
N      0.548410    0.016262    1.157378
C      0.892268    1.280603    1.580254
C      0.404136    2.185078    0.631095
C     -0.252013    1.392191   -0.394099
C     -0.921917    1.660664   -1.597026
N     -1.440365    0.660478   -2.355169
C      0.640989    3.584949    0.857899
C      0.169105    4.552136   -0.061192
C      0.385045    5.915283    0.132487
C      1.077267    6.346338    1.249390
C      1.552132    5.413036    2.172650
C      1.355615    4.017039    2.016963
C      1.838333    3.056956    2.960931
C      2.555355    3.371392    4.139910
C      2.982488    2.364569    4.997005
N      2.759488    1.056108    4.787190
C      2.077044    0.745657    3.665822
C      1.602026    1.686364    2.736128
C     -2.824870   -2.714415   -2.415783
C     -3.388130   -2.979480   -1.226029
H     -5.309777   -3.944975   -1.101841
H     -3.922028   -4.997068   -0.690509
H     -4.634311   -5.392579   -3.263199
H     -3.240851   -4.356056   -5.480387
H     -1.719729   -2.518459   -6.144903
H     -0.903367   -0.870444   -4.539527
H     -0.564504   -2.028255   -0.483079
H      0.773319   -0.836273    1.648770
H     -1.070817    2.650869   -2.004679
H     -0.379635    4.270166   -0.949065
H      0.010370    6.634736   -0.590931
H      1.250769    7.407311    1.409312
H      2.087340    5.811525    3.029817
H      2.793242    4.392817    4.412453
H      3.533177    2.602000    5.903113
H      1.920870   -0.320442    3.537261
H     -3.259945   -2.415478   -0.315506
