30

C     -1.607429    4.088348   -0.321925
C     -2.171728    2.938004    0.519529
C     -3.692372    3.043365    0.619871
C     -1.731982    1.563340   -0.045912
N     -0.562779    1.153073    0.695781
C     -0.299526    1.804774    1.850869
N      0.804391    1.373663    2.385680
N      1.287845    0.398803    1.520462
C      0.446949    0.262519    0.498590
C      0.618676   -0.639266   -0.638360
C      1.916299   -0.929267   -1.088478
C      2.126585   -1.782167   -2.175866
C      1.040251   -2.364586   -2.824977
C     -0.245430   -2.093686   -2.370895
O     -1.340335   -2.648672   -2.965967
C     -0.463257   -1.246372   -1.286798
S     -1.426877    3.038474    2.221765
H     -2.016184    4.057533   -1.338687
H     -1.866975    5.064773    0.103411
H     -0.516036    4.036268   -0.410319
H     -4.114332    2.248657    1.245906
H     -4.151008    2.955381   -0.371764
H     -4.003894    4.006036    1.041314
H     -1.483726    1.608800   -1.110754
H     -2.494208    0.793218    0.117510
H      2.776481   -0.486240   -0.586935
H      3.140042   -1.991313   -2.509430
H      1.215778   -3.025318   -3.667999
H     -1.039459   -3.257737   -3.661276
H     -1.483151   -1.097367   -0.948650
