41

O     -3.144543   -2.532074   -1.175048
C     -2.218928   -1.726083   -1.143314
N     -2.336235   -0.479668   -0.564243
C     -3.483774   -0.111902    0.240256
C     -3.681626    1.403870    0.323591
C     -2.536704    2.118798    1.003715
C     -1.600587    2.841537    0.248871
C     -0.533973    3.490467    0.874924
C     -0.396379    3.424937    2.258935
C     -1.308644    2.686304    3.017661
C     -2.381925    2.048752    2.395951
O     -1.216687    2.548793    4.379519
C      0.076282    2.939338    4.855861
C      0.508165    4.251609    4.222564
O      0.662688    4.102959    2.806488
C     -0.907125   -1.993358   -1.694221
C     -0.410520   -3.098367   -2.360129
C      0.945410   -2.820481   -2.670016
C      1.989156   -3.502690   -3.319210
C      3.237218   -2.872540   -3.431329
C      3.447842   -1.592636   -2.910792
C      2.421825   -0.898059   -2.261503
C      1.194610   -1.549782   -2.166525
O      0.077604   -1.045158   -1.575090
H     -1.463304    0.019584   -0.422743
H     -4.380319   -0.572339   -0.189714
H     -3.335143   -0.549167    1.234092
H     -3.825290    1.812772   -0.684664
H     -4.605222    1.621265    0.874592
H     -1.696879    2.906695   -0.833252
H      0.181988    4.055725    0.284775
H     -3.089205    1.489162    3.003342
H      0.787245    2.133478    4.635019
H      0.010129    3.047504    5.942979
H     -0.221423    5.048731    4.412197
H      1.473366    4.568658    4.629716
H     -0.971609   -3.993988   -2.588879
H      1.836526   -4.497548   -3.726849
H      4.053486   -3.389910   -3.931539
H      4.426334   -1.127328   -3.011330
H      2.568236    0.093759   -1.851862
