44

C     -3.663515    4.688505    4.842661
C     -3.181104    3.738555    3.784638
C     -3.750269    2.450276    3.677661
C     -3.303179    1.524424    2.720905
C     -2.270350    1.881519    1.866909
C     -1.715297    3.166378    2.006819
C     -2.130436    4.102019    2.937464
C     -1.641811    1.093099    0.804445
C     -1.931026   -0.196878    0.389505
C     -1.189797   -0.757645   -0.665458
C     -0.153648   -0.047871   -1.322594
C      0.599557   -0.667637   -2.426383
C      1.238919   -1.908243   -2.249498
C      1.937244   -2.456287   -3.310981
C      2.699989   -3.745487   -3.385682
C      3.214714   -3.730698   -4.827908
O      3.895310   -4.586852   -5.367584
C      2.011586   -1.798112   -4.536728
N      2.764362   -2.558193   -5.420533
C      1.403747   -0.577644   -4.764395
C      1.484422    0.119217   -6.084969
C      0.693081   -0.020888   -3.686902
C      0.137158    1.256168   -0.900547
C     -0.610417    1.778766    0.140685
S     -0.424864    3.386184    0.831265
O      0.838275    3.441871    1.534037
O     -0.852231    4.358524   -0.151065
H     -3.116402    4.518443    5.774960
H     -3.517214    5.728092    4.531114
H     -4.734057    4.552753    5.028635
H     -4.556896    2.160496    4.350327
H     -3.769736    0.545303    2.667487
H     -1.653752    5.075468    2.998926
H     -2.718210   -0.780211    0.857974
H     -1.436388   -1.768653   -0.990103
H      1.199429   -2.426027   -1.295150
H      3.545311   -3.748837   -2.693240
H      2.042774   -4.605947   -3.238272
H      2.975930   -2.315525   -6.376256
H      1.018043   -0.491460   -6.864669
H      0.967694    1.084363   -6.062171
H      2.529214    0.308721   -6.351470
H      0.188077    0.935103   -3.826748
H      0.926824    1.843411   -1.360312
