41

C     -1.143801   -3.563608    5.692108
O     -0.259689   -4.402441    5.049980
C      0.084527   -3.812603    3.855703
C     -0.585752   -2.635112    3.784514
C     -1.373036   -2.444073    4.929139
C     -2.206267   -1.373120    5.245393
C     -2.218385   -0.375942    4.238554
C     -1.433984   -0.541419    3.072503
O     -1.338438    0.326794    2.015093
C     -0.468190   -0.239146    1.115407
C      0.006820   -1.470702    1.575024
N      0.880816   -2.244976    0.883617
C      1.267401   -1.724005   -0.311899
C      0.863738   -0.506669   -0.878437
C      1.342795   -0.046332   -2.169039
C      0.988190    1.181134   -2.829615
C      1.497318    1.616385   -4.145617
C      2.398048    0.864704   -4.905993
C      2.836913    1.340167   -6.143686
C      2.372647    2.559249   -6.608618
C      1.485696    3.251863   -5.810851
N      1.049099    2.808413   -4.609995
C      0.081509    1.886951   -2.011980
C     -0.523950    3.101495   -2.231810
O     -1.337166    3.428942   -1.183552
C     -1.259406    2.416888   -0.273221
C     -0.404558    1.449621   -0.733135
C     -0.050372    0.258655   -0.109462
C     -0.620547   -1.623803    2.801756
H     -1.493848   -3.916351    6.652028
H      0.779436   -4.356254    3.231801
H     -2.789356   -1.290178    6.153471
H     -2.826988    0.516055    4.356452
H      1.968461   -2.364591   -0.846390
H      2.042505   -0.714407   -2.672882
H      2.777263   -0.091546   -4.566960
H      3.536894    0.757673   -6.736298
H      2.692029    2.958476   -7.564174
H      1.086064    4.213360   -6.120519
H     -0.499294    3.832653   -3.027208
H     -1.859706    2.546156    0.616450
