19

C      1.551412    1.038022   -2.126162
C      1.141561    2.286152   -1.668108
C      0.076878    2.406090   -0.769420
C     -0.567487    1.233138   -0.341773
S     -1.890412    1.054997    0.744312
C     -1.832788   -0.648628    0.537245
C     -2.841682   -1.610213    1.288431
N     -3.820456   -1.150661    2.147117
C     -4.395856   -2.264101    2.522916
O     -3.857784   -3.378946    1.970454
N     -2.819708   -2.946155    1.145512
N     -0.900650   -1.092259   -0.281108
C     -0.173680   -0.029770   -0.787884
C      0.902497   -0.123122   -1.693600
H      2.381189    0.960787   -2.824996
H      1.655056    3.181602   -2.012636
H     -0.241729    3.380978   -0.412860
H     -5.224340   -2.406654    3.200209
H      1.218832   -1.099259   -2.048343
