70

C      5.380297   -8.100569   -0.673419
C      4.808600   -8.005856    0.594708
C      3.760560   -7.110751    0.822435
C      3.276040   -6.296673   -0.211908
C      2.170139   -5.376157    0.065485
N      1.051815   -5.750994    0.659270
N      0.191593   -4.694349    0.684199
C      0.802424   -3.641074    0.174203
C      0.233437   -2.290338    0.214348
C      0.976881   -1.186089    0.657697
C      0.393062    0.081615    0.727026
C     -0.952805    0.262905    0.378688
N     -1.558134    1.556101    0.488477
C     -1.978610    2.051398    1.778066
C     -1.874628    1.250098    2.938915
C     -2.248909    1.725699    4.194628
C     -2.733068    3.017095    4.322974
C     -2.858145    3.823803    3.192241
C     -2.508527    3.358900    1.903051
N     -2.674523    4.190018    0.734237
C     -3.220027    5.510552    0.855373
C     -4.597905    5.695179    1.051123
C     -5.131767    6.980195    1.148692
C     -4.294588    8.092329    1.038777
C     -2.923163    7.921095    0.846537
C     -2.385830    6.636489    0.756668
C     -2.290774    3.677942   -0.561491
C     -2.482030    4.440115   -1.737183
C     -2.084414    3.971973   -2.989169
C     -1.490951    2.725028   -3.098788
C     -1.313210    1.942312   -1.957939
C     -1.719024    2.387791   -0.678936
C     -1.702040   -0.839863   -0.053715
C     -1.113280   -2.104808   -0.130526
N      2.062204   -4.029146   -0.286245
C      3.018766   -3.227252   -0.969341
C      2.600213   -2.327559   -1.959637
C      3.541049   -1.557084   -2.643590
C      4.896719   -1.675601   -2.341786
C      5.315871   -2.559551   -1.348907
C      4.381659   -3.336554   -0.661531
C      3.839234   -6.423860   -1.490179
C      4.895375   -7.311278   -1.715933
H      6.192687   -8.800864   -0.852471
H      5.169661   -8.635837    1.404700
H      3.311372   -7.056285    1.813116
H      2.011973   -1.297979    0.971796
H      0.981660    0.931442    1.067777
H     -1.502856    0.230148    2.883796
H     -2.155414    1.084689    5.067119
H     -3.020113    3.397627    5.298967
H     -3.239749    4.830768    3.337967
H     -5.251865    4.827895    1.129859
H     -6.199902    7.113536    1.301689
H     -4.711882    9.093328    1.104826
H     -2.271673    8.787959    0.757745
H     -1.316610    6.503675    0.605149
H     -2.950070    5.420168   -1.697316
H     -2.237613    4.586925   -3.871368
H     -1.170872    2.354216   -4.069179
H     -0.847407    0.969702   -2.087827
H     -2.749375   -0.715757   -0.316979
H     -1.717520   -2.953019   -0.447965
H      1.555059   -2.233889   -2.241867
H      3.217668   -0.870125   -3.422939
H      5.626077   -1.075195   -2.878762
H      6.374255   -2.639096   -1.104442
H      4.739309   -3.994889    0.128004
H      3.456401   -5.843606   -2.326526
H      5.325146   -7.399909   -2.710695
