48

C      4.979913    0.281174   -0.444135
C      5.869359    1.485326   -0.240704
C      5.183020    2.632028   -0.181226
C      3.797072    2.264677   -0.312570
C      3.579703    0.871922   -0.458203
C      2.275759    0.203267   -0.580680
C      2.067328   -1.220819   -0.812912
C      3.126711   -2.147380   -1.031383
C      2.950536   -3.507436   -1.296282
C      1.679773   -4.018754   -1.361456
C      0.605036   -3.163609   -1.147568
C      0.746798   -1.773864   -0.862673
C     -0.399497   -0.957748   -0.596318
C     -1.730950   -1.468170   -0.539395
C     -2.816265   -0.675402   -0.182243
N     -2.642865    0.609432    0.165082
C     -1.380847    1.094466    0.091492
C     -0.226319    0.413927   -0.346339
C      1.080304    1.018291   -0.467108
C      1.344315    2.449652   -0.476464
C      0.425283    3.447534   -0.731661
S      1.094480    5.027771   -0.620512
C      2.668626    4.405372   -0.376967
C      2.658935    3.032036   -0.379202
C     -4.197963   -1.160649   -0.117765
S     -4.712951   -2.752051   -0.604041
C     -6.381997   -2.467492   -0.214212
C     -6.478125   -1.207906    0.253301
C     -7.428869   -0.281069    0.747507
C     -6.729016    0.907016    1.051696
N     -5.370788    0.784733    0.774900
C     -5.300943   -0.496655    0.305966
H      5.234633   -0.164908   -1.409806
H      5.109293   -0.418264    0.386775
H      6.945670    1.412680   -0.168129
H      5.573544    3.627114   -0.052084
H      4.160694   -1.843902   -1.020575
H      3.812280   -4.149560   -1.457511
H      1.514133   -5.071161   -1.572859
H     -0.371075   -3.634918   -1.212424
H     -1.927841   -2.510066   -0.754451
H     -1.323437    2.104875    0.483500
H     -0.616170    3.382776   -1.006834
H      3.506848    5.082360   -0.287851
H     -7.137611   -3.226032   -0.356978
H     -8.492637   -0.429253    0.876494
H     -7.099305    1.843270    1.448753
H     -4.589058    1.427989    0.866917
