35

C      0.687192   -2.134258    0.474204
C      1.233966   -2.958184    1.469652
C      0.657098   -4.191109    1.767520
C     -0.473988   -4.615931    1.073715
C     -1.041717   -3.812937    0.073792
C     -0.458207   -2.559502   -0.231544
C     -1.019517   -1.734676   -1.239975
C     -0.435825   -0.477753   -1.547402
C      0.718195   -0.059200   -0.830005
C      1.383765    1.227176   -1.086409
C      2.411569    1.326673   -2.029060
C      3.009040    2.559534   -2.233645
N      2.658976    3.682623   -1.571792
C      1.667558    3.566663   -0.663186
C      1.009691    2.379145   -0.387896
C      1.257471   -0.894217    0.166146
C     -1.040831    0.298494   -2.562014
C     -2.172904   -0.143389   -3.245692
C     -2.734125   -1.376459   -2.934356
C     -2.170864   -2.181220   -1.937135
C     -2.734757   -3.424033   -1.621858
C     -2.177450   -4.230205   -0.628814
H      2.116808   -2.644023    2.022349
H      1.089212   -4.821089    2.540654
H     -0.910456   -5.581390    1.319987
H      2.738874    0.461090   -2.595958
H      3.809511    2.679220   -2.958089
H      1.405568    4.484006   -0.143819
H      0.218578    2.353228    0.354531
H      2.142123   -0.562122    0.708880
H     -0.631395    1.269419   -2.834905
H     -2.615097    0.476767   -4.021127
H     -3.617120   -1.704941   -3.477978
H     -3.617970   -3.778656   -2.148930
H     -2.641032   -5.189478   -0.409668
