40

C     -3.717687   -0.223748    4.031411
C     -2.714366    0.834888    3.600247
C     -1.515208    0.225659    2.919043
C     -0.396040   -0.165196    3.666913
C      0.710250   -0.740708    3.038267
C      0.698551   -0.937102    1.659168
N      1.835178   -1.488027    1.007557
S      3.060270   -0.426577    0.524179
O      3.207747    0.626475    1.505272
O      4.186460   -1.262338    0.160294
C      2.408036    0.264257   -0.974697
C      2.515823   -0.452394   -2.166630
C      2.011947    0.094941   -3.349502
C      1.408123    1.358098   -3.346742
O      0.881341    1.974829   -4.451659
C      1.004324    1.302454   -5.698208
C      1.312170    2.083585   -2.142615
C      0.673074    3.445269   -2.113976
C      1.823201    1.532380   -0.957753
C     -0.406759   -0.552074    0.903824
C     -1.513017    0.022639    1.532492
H     -4.087759   -0.793728    3.172430
H     -3.269604   -0.932105    4.736485
H     -4.576073    0.245951    4.521979
H     -3.198030    1.550975    2.924722
H     -2.388376    1.414123    4.472739
H     -0.375661   -0.014850    4.744212
H      1.579109   -1.014046    3.630323
H      2.234659   -2.336749    1.405903
H      2.987582   -1.432438   -2.183325
H      2.108362   -0.490667   -4.258048
H      0.556744    1.939810   -6.466904
H      2.055676    1.149994   -5.963583
H      0.455096    0.355296   -5.690831
H      0.670339    3.866944   -1.103275
H     -0.367341    3.382807   -2.449002
H      1.223915    4.135898   -2.760593
H      1.756837    2.088049   -0.023714
H     -0.421930   -0.703384   -0.171945
H     -2.373290    0.312750    0.933147
