29

C      0.211112    3.488495    0.090257
N     -0.393557    2.183333    0.231601
N     -1.290200    2.036603    1.231656
C     -1.698711    0.767442    1.155412
C     -1.021055    0.113004    0.061129
C     -1.195960   -1.222252   -0.321811
C     -2.137544   -1.888727    0.501528
N     -2.423499   -3.307054    0.213601
O     -1.823617   -3.836253   -0.733173
O     -3.246794   -3.888158    0.934446
C     -2.826606   -1.266046    1.595328
C     -2.628748    0.084016    1.957622
C     -0.181249    1.045362   -0.523718
C      0.714578    0.909820   -1.647448
C      1.569470    1.815762   -2.260181
C      2.220864    1.149713   -3.329138
C      1.739808   -0.137402   -3.329289
O      0.836629   -0.284523   -2.322484
C      2.025151   -1.268091   -4.169675
O      2.818022   -1.261918   -5.108118
H     -0.041471    3.884862   -0.895619
H      1.290139    3.389509    0.227250
H     -0.185062    4.161214    0.856800
H     -0.683993   -1.704233   -1.143014
H     -3.539497   -1.843180    2.186602
H     -3.145665    0.558294    2.781313
H      1.732009    2.848438   -1.994637
H      2.951790    1.552484   -4.018005
H      1.470391   -2.188605   -3.919515
