37

N     -0.614892   -0.780524    0.062410
C     -1.523294   -0.867301   -0.983568
C     -1.738491    0.247997   -1.896590
C     -2.613202    0.108955   -2.985529
C     -2.798102    1.159631   -3.877718
C     -2.107287    2.349535   -3.685077
C     -1.236374    2.491873   -2.597823
C     -1.032706    1.448226   -1.674483
C     -0.142024    1.552638   -0.483036
C      0.532339    2.743118   -0.155629
C      1.321927    2.846187    0.992994
C      1.448127    1.772626    1.866426
O      2.217115    2.023038    2.968552
C      2.401736    0.956432    3.890680
C      0.795703    0.576906    1.570664
C      0.037654    0.447079    0.394061
N     -2.125697   -2.037414   -1.017094
C     -1.516410   -2.783159   -0.050397
C     -1.757578   -4.125255    0.286141
C     -0.965948   -4.736998    1.259375
C      0.061845   -4.028793    1.873158
C      0.311022   -2.686276    1.556281
C     -0.519988   -2.057835    0.610273
H     -3.146744   -0.827689   -3.137681
H     -3.475113    1.046671   -4.720114
H     -2.244556    3.174399   -4.380302
H     -0.726351    3.445116   -2.499344
H      0.455711    3.630807   -0.776067
H      1.825322    3.784410    1.216142
H      2.892724    0.101560    3.413898
H      3.058340    1.314703    4.689352
H      1.451044    0.662787    4.347676
H      0.839640   -0.228185    2.285361
H     -2.539071   -4.676469   -0.226003
H     -1.140664   -5.778245    1.518365
H      0.691817   -4.529711    2.605947
H      1.152529   -2.191249    2.023270
