46

Si    -2.421302    2.738302   -1.784168
C     -1.185851    2.256812   -3.163145
C     -0.378151    1.245841   -2.772213
C     -0.610778    0.761567   -1.441628
C     -1.646322    1.400036   -0.706461
C     -1.842715    0.920081    0.553131
S     -0.719726   -0.352065    0.857052
C      0.006640   -0.228325   -0.713457
C      1.106978   -1.112069   -1.053629
C      2.330688   -1.128126   -0.388435
N      3.415888   -1.915855   -0.667483
C      3.409087   -2.830063   -1.708074
C      4.629554   -3.611068   -1.952377
C      5.604747   -3.765643   -0.960372
C      6.763052   -4.491961   -1.234339
C      6.931260   -5.048353   -2.493654
C      5.930438   -4.851260   -3.429147
N      4.801334   -4.148484   -3.187970
C      2.200433   -2.939402   -2.460028
N      1.914792   -3.776044   -3.476819
S      0.371237   -3.460791   -3.966749
N     -0.043920   -2.257225   -2.913719
C      1.022094   -2.043288   -2.116713
C     -2.785380    1.308596    1.574461
C     -4.031093    0.679497    1.813527
C     -4.965441    1.112956    2.822820
C     -4.753116    2.213907    3.690018
C     -3.526205    2.809964    3.426107
C     -2.974907    3.890776    4.060209
O     -1.749557    4.165448    3.511454
C     -1.524099    3.246769    2.520870
C     -2.593518    2.391725    2.432208
H     -2.158084    4.120462   -1.310959
H     -3.817659    2.453908   -2.202397
H     -1.192971    2.763337   -4.115494
H      0.382964    0.820440   -3.416278
H      2.497474   -0.448786    0.447628
H      5.468137   -3.321314    0.021650
H      7.525398   -4.615607   -0.469696
H      7.819304   -5.617756   -2.742922
H      6.010055   -5.261591   -4.433727
H     -4.307966   -0.181263    1.201754
H     -5.901770    0.556552    2.917417
H     -5.462637    2.526772    4.442860
H     -3.280623    4.544971    4.864491
H     -0.579772    3.342896    2.003616
