44

C      0.519605   -3.021951   -0.979092
C      1.700104   -2.325590   -0.373015
C      1.303499   -1.175251    0.196831
C      2.129719   -0.139828    0.837233
C      1.511765    0.986441    1.276601
C      0.098421    1.064445    1.122309
N     -0.613789    2.166443    1.506335
C     -1.936325    1.928528    1.252920
C     -2.936475    2.905891    1.499716
C     -4.208061    2.550254    1.228750
C     -4.511256    1.202091    0.752744
C     -5.763593    0.752716    0.541046
Si    -5.748395   -1.049911    0.062126
C     -3.887676   -1.037088    0.217227
C     -3.427013    0.188718    0.525134
C     -2.081953    0.635493    0.750998
C     -0.775591    0.122376    0.582053
C     -0.160928   -1.046847    0.046336
C     -0.611814   -2.085792   -0.667639
C      3.550686   -0.198961    0.967198
S      4.292791   -0.595628    2.489105
C      5.895775   -0.481015    1.853403
C      5.866746   -0.156564    0.525066
C      6.928695    0.043000   -0.412295
C      6.528509    0.357719   -1.664031
Si     4.611826    0.437258   -1.787102
C      4.540600   -0.004983    0.044790
H      0.646188   -3.137190   -2.059656
H      0.358717   -4.001912   -0.520466
H      2.713529   -2.693496   -0.426277
H      2.063453    1.801623    1.734358
H     -0.229612    3.012061    1.904520
H     -2.692154    3.894588    1.870871
H     -5.025012    3.245817    1.385464
H     -6.685132    1.298630    0.662889
H     -6.398884   -1.911671    1.078646
H     -6.199853   -1.269967   -1.333365
H     -3.330532   -1.945429    0.097440
H     -1.614995   -2.246094   -1.015900
H      6.747804   -0.660839    2.493474
H      7.970533   -0.053450   -0.129378
H      7.143490    0.551099   -2.527830
H      4.115623   -0.625234   -2.697601
H      4.176531    1.821050   -2.102644
