50

C      4.424495    0.461976   -0.831093
C      5.928766    0.537686   -1.106347
C      6.624789    0.751076    0.032732
C      5.721228    0.835408    1.119753
C      5.830961    1.032315    2.458787
S      4.260997    1.012227    3.164427
C      3.442575    0.735494    1.642604
C      2.019370    0.610875    1.527607
C      1.186209    0.694560    2.587577
C     -0.158371    0.523422    2.097558
C     -0.196398    0.326869    0.705386
C      1.234324    0.370516    0.231049
C     -1.386302    0.128531   -0.064087
C     -1.347009   -0.062512   -1.459952
C     -2.502850   -0.263445   -2.265583
C     -3.755205   -0.267573   -1.601733
C     -4.932297   -0.459519   -2.329450
C     -4.897886   -0.648533   -3.707396
C     -3.684860   -0.651113   -4.398521
C     -3.686535   -0.844790   -5.790554
C     -2.499215   -0.854123   -6.516632
C     -1.294600   -0.669441   -5.856847
C     -1.280434   -0.475827   -4.471842
C     -2.467609   -0.459392   -3.694723
C     -3.833141   -0.080459   -0.213773
C     -2.670831    0.116860    0.561831
C     -2.623210    0.318104    1.982079
C     -3.717678    0.349914    2.815050
S     -3.267835    0.612684    4.455805
C     -1.595728    0.686990    4.066826
C     -1.394299    0.515231    2.720624
C      4.397370    0.668444    0.649623
H      4.029568   -0.518187   -1.112345
H      3.894448    1.257308   -1.362401
H      6.361386    0.432041   -2.089999
H      7.698662    0.843960    0.112267
H      6.713154    1.184636    3.063788
H      1.427915    0.857211    3.624940
H      1.383979    1.197910   -0.469846
H      1.520370   -0.583959   -0.222134
H     -0.371730   -0.053945   -1.937832
H     -5.898982   -0.464512   -1.829645
H     -5.837244   -0.794573   -4.236749
H     -4.623276   -0.991328   -6.324845
H     -2.518017   -1.005117   -7.592413
H     -0.361389   -0.674839   -6.413963
H     -0.308309   -0.336411   -4.008808
H     -4.805830   -0.087844    0.271257
H     -4.764680    0.236056    2.574806
H     -0.868322    0.851738    4.849494
