45

C      3.707403   -2.357363   -6.656654
C      4.235461   -2.890391   -5.506330
O      3.517560   -2.491693   -4.426133
C      2.506719   -1.687256   -4.877872
C      2.592686   -1.581166   -6.253861
C      1.608841   -1.146708   -3.865849
C      0.551052   -0.330391   -4.197086
N     -0.303849    0.202159   -3.297820
C     -0.154722   -0.049323   -1.971183
C      0.874716   -0.897525   -1.514039
C      1.752216   -1.423206   -2.504777
C      0.956760   -1.228676   -0.128482
C      1.877251   -2.185656    0.383766
C      1.865605   -2.605500    1.712099
C      0.908205   -2.102005    2.565378
C      0.015798   -1.140194    2.093918
C      0.055964   -0.617395    0.776928
C     -0.836743    0.420665    0.328905
C     -1.024504    0.562171   -1.060786
N     -2.043753    1.300022   -1.559023
C     -2.885420    1.959822   -0.740135
C     -2.732177    2.063036    0.623128
C     -3.650287    2.896637    1.373831
C     -3.529552    3.199545    2.741789
C     -2.367167    2.639887    3.232672
C     -1.866512    2.876552    4.486729
N     -0.638887    2.260891    4.542660
C     -0.361662    1.651536    3.336949
C     -1.463012    1.787631    2.520794
C     -1.616790    1.344419    1.163764
H      4.078924   -2.508804   -7.660327
H      5.075111   -3.538271   -5.296503
H      1.933779   -1.013652   -6.896009
H      0.335226   -0.054076   -5.224740
H      2.574350   -2.071680   -2.216485
H      2.613082   -2.660749   -0.259374
H      2.574355   -3.353287    2.056848
H      0.838769   -2.456402    3.589936
H     -0.765927   -0.824549    2.782076
H     -3.690918    2.469656   -1.263135
H     -4.485329    3.356601    0.840733
H     -4.205533    3.849063    3.277708
H     -2.234888    3.456387    5.322147
H     -0.003521    2.302146    5.329135
H      0.608747    1.200320    3.184400
