47

C     -2.137467   -1.088737    1.169346
C     -2.529302   -1.629214    2.548473
C     -1.443497   -1.799820    3.336622
C     -0.278425   -1.418202    2.621186
C     -0.657976   -0.990885    1.326585
C      0.411127   -0.618418    0.554874
S      1.877236   -0.809909    1.450953
C      1.065222   -1.385641    2.871314
C      1.823581   -1.721486    4.077143
C      2.906964   -2.610484    4.031038
C      3.615181   -2.930743    5.192224
C      3.247274   -2.366832    6.412133
C      2.171617   -1.483408    6.473076
C      1.463012   -1.163771    5.312211
C      0.453346   -0.133818   -0.808406
C      1.072921   -0.810726   -1.883831
C      1.081095   -0.323761   -3.237719
C      0.471064    0.889602   -3.672222
C      0.495510    1.380962   -5.046180
C      1.675933    1.417713   -5.789286
C      1.640188    1.873948   -7.105336
C      0.429535    2.277621   -7.651067
C     -0.698418    2.209031   -6.853097
N     -0.691437    1.773051   -5.574449
C     -0.132667    1.540744   -2.584899
C     -0.787492    2.749478   -2.590605
N     -1.193553    3.009463   -1.301645
C     -0.795568    1.992251   -0.462942
C     -0.140894    1.059578   -1.232486
H     -2.417594   -1.793903    0.381943
H     -2.599104   -0.113700    0.993441
H     -3.547444   -1.846977    2.834124
H     -1.448990   -2.177875    4.349195
H      3.203290   -3.068422    3.090028
H      4.452849   -3.621442    5.142264
H      3.799492   -2.615216    7.314718
H      1.884896   -1.039701    7.422830
H      0.632258   -0.464478    5.375582
H      1.565764   -1.763358   -1.686948
H      1.580124   -0.947221   -3.981487
H      2.618146    1.106738   -5.349283
H      2.550787    1.913669   -7.695905
H      0.365385    2.636935   -8.671668
H     -1.670836    2.511116   -7.230920
H     -1.007414    3.446348   -3.388558
H     -1.699832    3.835760   -1.011859
H     -1.009731    2.039416    0.596162
