43

Si     1.009942    6.375847    0.499226
C     -0.736942    6.598516    1.138538
C     -1.382023    5.417919    1.173669
C     -2.747167    5.222633    1.617908
C     -3.262377    3.978998    1.601168
C     -2.489357    2.823330    1.149399
C     -1.208312    2.920864    0.719949
C     -0.524716    1.680977    0.283392
C     -0.679936    1.319574   -1.068629
C     -0.050266    0.161736   -1.534754
N     -0.069584   -0.373950   -2.812713
C      0.684185   -1.484737   -2.747279
C      0.977101   -2.368293   -3.742949
S      0.470511   -2.311802   -5.343510
C      1.365777   -3.779073   -5.601915
C      2.019328   -4.268992   -4.478874
C      1.777128   -3.412404   -3.371514
S      2.107207   -3.164031   -1.685849
C      1.197000   -1.712060   -1.511929
C      0.735361   -0.645557   -0.681709
C      0.893065   -0.273875    0.682687
C      1.678645   -1.071515    1.542740
C      1.846326   -0.719998    2.880610
C      1.236404    0.425807    3.375713
C      0.455623    1.223057    2.534143
C      0.259915    0.899824    1.170647
C     -0.591126    4.250864    0.713317
C      0.665801    4.547539    0.325949
H      2.027973    6.672055    1.536140
H      1.216823    7.044026   -0.808684
H     -1.116976    7.565456    1.425593
H     -3.328823    6.072527    1.955486
H     -4.281579    3.799126    1.928904
H     -2.998435    1.863019    1.178445
H     -1.277466    1.934116   -1.737424
H     -0.542342   -0.023424   -3.636441
H      1.361501   -4.211922   -6.593428
H      2.620130   -5.168625   -4.460485
H      2.166695   -1.971586    1.178865
H      2.453582   -1.340861    3.533765
H      1.365248    0.705206    4.418143
H     -0.003592    2.113597    2.959650
H      1.416850    3.864018   -0.037707
