33

C      0.123694   -3.556350    0.084827
C      0.922865   -2.423105   -0.032724
C      0.369015   -1.128703    0.018217
C      1.222529    0.051388   -0.115168
C      1.464943    0.611553   -1.383877
C      2.278524    1.739356   -1.559068
C      2.840376    2.277695   -0.402760
N      3.664869    3.341514   -0.167029
N      3.946701    3.479007    1.138571
N      3.316075    2.506411    1.785774
C      2.632202    1.756516    0.866334
C      1.816725    0.627888    1.023922
C     -1.034645   -0.990005    0.196814
C     -1.802171   -2.153679    0.307951
C     -1.255316   -3.441557    0.256173
N     -3.112369   -1.768996    0.467831
C     -3.228323   -0.402400    0.466773
C     -4.352456    0.403054    0.598423
N     -4.209061    1.745884    0.569508
C     -2.972626    2.265790    0.417561
C     -1.811904    1.519108    0.279311
C     -1.946561    0.120679    0.303224
H      0.579930   -4.542802    0.042583
H      1.996531   -2.543701   -0.166503
H      1.003425    0.159152   -2.262099
H      2.454684    2.160952   -2.542565
H      4.064336    4.000112   -0.823750
H      1.648640    0.217207    2.014561
H     -1.877015   -4.326872    0.347441
H     -3.884920   -2.410138    0.574201
H     -5.356564    0.018030    0.726272
H     -2.931235    3.351813    0.409570
H     -0.853704    2.009093    0.163334
