29

C      2.214942   -3.776936   -2.219177
C      1.650565   -2.799229   -1.234388
C      0.517182   -3.139957   -0.464339
C     -0.080712   -2.275577    0.484386
C      0.385776   -0.971199    0.774479
C     -0.254578   -0.094980    1.762292
C      0.488574    0.524701    2.783632
C     -0.123090    1.354593    3.732923
C     -1.502348    1.578023    3.694727
C     -2.167793    2.486235    4.682372
C     -2.244839    0.973822    2.679335
F     -3.568011    1.186589    2.610414
C     -1.635191    0.149349    1.734715
F     -2.398048   -0.411052    0.781299
C      1.528709   -0.564264    0.021582
N      2.159778    0.622874    0.093402
S      3.407699    0.577470   -0.993384
N      3.228917   -0.949222   -1.608018
C      2.165299   -1.495012   -0.994672
H      1.469543   -4.008663   -2.986593
H      2.499842   -4.702417   -1.708594
H      3.103871   -3.382150   -2.719879
H      0.067479   -4.125155   -0.604032
H     -0.956117   -2.649490    1.019932
H      1.565059    0.368263    2.848260
H      0.491059    1.823811    4.499432
H     -3.128618    2.070806    5.003756
H     -2.335391    3.470117    4.233435
H     -1.552884    2.613363    5.579564
