42

Si     3.463540    0.262450    0.156259
C      4.368392   -0.827081   -1.082503
C      3.490658   -1.525236   -1.831203
C      2.073072   -1.275386   -1.509754
C      1.030268   -1.893930   -2.164876
C     -0.289661   -1.598290   -1.795593
C     -0.662030   -0.689632   -0.774429
C      0.454948   -0.053025   -0.101508
C      1.802382   -0.353306   -0.476752
C     -0.012916    0.839830    0.905048
C      0.722237    1.628947    1.759196
O     -0.096223    2.345210    2.580348
C     -1.373792    2.016820    2.254891
C     -1.378925    1.097410    1.233431
C     -2.512652    0.525505    0.632929
C     -3.865790    0.868910    1.056291
C     -5.020632    0.325543    0.488125
C     -4.677224   -0.563329   -0.510211
C     -5.611960   -1.248200   -1.242413
N     -4.919101   -2.027050   -2.129319
C     -3.559564   -1.840302   -1.963756
C     -3.352048   -0.925176   -0.953201
C     -2.107832   -0.410608   -0.419779
C      5.789327   -0.877970   -1.183032
C      6.778119   -0.205642   -0.467817
N      8.093464   -0.468930   -0.800685
C      8.119221   -1.345988   -1.774488
S      6.603191   -1.894229   -2.335665
H      3.725201   -0.137695    1.562539
H      3.673889    1.710251   -0.100308
H      3.744767   -2.225076   -2.616819
H      1.215514   -2.607362   -2.963349
H     -1.039790   -2.127786   -2.360774
H      1.768742    1.816432    1.935214
H     -2.133681    2.518904    2.836236
H     -4.007851    1.588841    1.860659
H     -6.022558    0.579532    0.801284
H     -6.693319   -1.256729   -1.218545
H     -5.337692   -2.649687   -2.808309
H     -2.913541   -2.405276   -2.611551
H      6.599420    0.507143    0.328444
H      9.045883   -1.705610   -2.202198
