40

C      2.653352   -1.482671   -5.949567
C      3.713370   -1.051727   -5.189557
O      3.291092   -0.676170   -3.955723
C      1.939792   -0.873240   -3.907525
C      1.507168   -1.360269   -5.126801
C      1.262025   -0.508564   -2.682865
C     -0.101178   -0.139348   -2.619183
C     -0.824756    0.212620   -1.448861
N     -2.128111    0.402667   -1.638621
C     -2.900222    0.657218   -0.562095
C     -2.438098    0.870848    0.732047
C     -3.356596    1.124057    1.757884
C     -2.920607    1.414143    3.042717
C     -1.560952    1.565270    3.302234
C     -1.154400    1.986869    4.580201
C      0.179646    2.272603    4.849760
C      1.112508    2.169381    3.832032
C      0.713999    1.729380    2.565233
C     -0.613646    1.342111    2.266633
C     -1.049783    0.839997    0.971975
C     -0.240602    0.331555   -0.140061
C      1.097620   -0.180365   -0.200692
C      1.884659   -0.589436    0.852696
N      3.074872   -1.055456    0.343010
C      3.024999   -1.057494   -1.028705
C      1.796702   -0.561874   -1.397607
H      2.699634   -1.835260   -6.970001
H      4.774425   -0.951912   -5.369676
H      0.486470   -1.601692   -5.388266
H     -0.669683   -0.134981   -3.551289
H     -3.962507    0.709770   -0.792657
H     -4.427337    1.096830    1.564269
H     -3.660082    1.592171    3.820473
H     -1.885778    2.126671    5.373872
H      0.478487    2.613050    5.837076
H      2.149019    2.444073    4.008726
H      1.467021    1.741637    1.781439
H      1.717263   -0.623642    1.920033
H      3.844076   -1.411679    0.895695
H      3.850396   -1.454719   -1.604214
