44

Si     0.982625    1.411977   -0.272919
C      0.438135    3.079928    0.427408
C     -0.804292    3.000938    0.942013
C     -1.425958    1.685520    0.874989
C     -0.697705    0.709856    0.286066
C     -1.015844   -0.693734    0.049979
N      0.002292   -1.560033   -0.259398
C     -0.228392   -2.892011   -0.486799
C     -1.452353   -3.557915   -0.453715
C     -1.594204   -4.979209   -0.691931
S     -2.621898   -5.587615   -1.965193
C     -2.234998   -7.247762   -1.645087
C     -1.356096   -7.269629   -0.627742
O     -0.787828   -8.373328   -0.072283
C     -0.001513   -7.768408    0.891852
C     -0.091359   -6.369940    0.912765
C     -1.001373   -6.048342   -0.110500
C     -2.545393   -2.718520   -0.129389
N     -3.832894   -3.086663    0.005140
S     -4.694927   -1.725267    0.373051
N     -3.485846   -0.598005    0.406177
C     -2.332990   -1.236556    0.127909
C      1.248336    4.271700    0.325802
C      0.942199    5.390156   -0.489960
C      1.759026    6.574847   -0.580086
C      2.960539    6.772485    0.139988
C      3.227563    5.671070    0.941524
C      4.288127    5.510185    1.791459
O      4.187046    4.299046    2.420433
C      3.049631    3.688603    1.962844
C      2.430474    4.490691    1.038003
H      1.122382    1.456812   -1.752616
H      2.131190    0.858530    0.492849
H     -1.335947    3.838072    1.379420
H     -2.417572    1.553357    1.291155
H      0.680784   -3.446778   -0.722642
H     -2.650344   -8.078071   -2.196978
H      0.567927   -8.466632    1.491910
H      0.434484   -5.711345    1.589107
H      0.035410    5.359029   -1.096264
H      1.423006    7.369904   -1.247562
H      3.561949    7.667090    0.067075
H      5.145397    6.107622    2.066770
H      2.842275    2.719896    2.394845
