36

Si     2.505369   -1.647181   -0.631936
C      1.074757   -1.873818   -1.810332
C      0.047043   -1.050011   -1.511481
C     -1.229871   -0.981175   -2.260062
C     -2.172519   -0.094542   -1.855826
C     -1.901073    0.741265   -0.732495
O     -2.757601    1.677932   -0.219681
C     -2.140781    2.260054    0.843354
C     -2.680731    3.263335    1.636424
C     -1.923242    3.766516    2.701320
C     -2.137770    4.760187    3.694576
C     -1.011839    4.812414    4.484645
N     -0.120660    3.887130    4.008345
C     -0.652107    3.234270    2.919536
C     -0.118704    2.223806    2.114092
C     -0.876203    1.718890    1.047069
C     -0.732920    0.743839    0.028935
C      0.307774   -0.165237   -0.333158
C      1.511602   -0.332208    0.245800
C     -1.560714   -1.819098   -3.371161
C     -1.774705   -3.187765   -3.414105
N     -2.057676   -3.728148   -4.654214
C     -2.054293   -2.767080   -5.549719
S     -1.712808   -1.190888   -4.972391
H      2.732361   -2.839446    0.218665
H      3.707885   -1.092443   -1.297214
H      1.134008   -2.589852   -2.615066
H     -3.137033    0.004255   -2.342263
H     -3.674130    3.647020    1.429190
H     -3.022880    5.370848    3.816221
H     -0.769114    5.426214    5.341635
H      0.794863    3.706499    4.396420
H      0.873674    1.835378    2.315499
H      1.916996    0.188575    1.095566
H     -1.734297   -3.845008   -2.553206
H     -2.253063   -2.953806   -6.596980
