41

Si     3.919085   -2.553415    4.301691
C      2.716724   -1.975413    5.594431
C      1.659156   -1.357376    5.036179
C      0.570860   -0.808080    5.808200
C     -0.448388   -0.206214    5.179178
C     -0.504455   -0.080514    3.709489
N     -1.629903    0.566643    3.281923
C     -1.782474    0.736065    1.954211
C     -0.855888    0.284407    1.042391
C      0.321973   -0.393758    1.500871
Si     1.370178   -0.871874   -0.059449
C      0.096227   -0.098048   -1.178781
C     -0.171072    0.127001   -2.523254
C     -1.387525    0.804078   -2.565282
N     -1.829307    0.958058   -1.254760
C     -0.916660    0.410417   -0.404145
C     -2.151261    1.290701   -3.680434
S     -3.864694    1.545040   -3.586786
C     -3.984524    2.071935   -5.217929
C     -2.744499    2.050280   -5.751906
C     -2.249731    2.390331   -7.032875
C     -0.865362    2.220538   -7.131516
S     -0.047508    1.641380   -5.689071
C     -1.695324    1.626826   -4.932082
C      0.525197   -0.593385    2.869215
C      1.669700   -1.267231    3.550113
C      2.765652   -1.834674    3.001798
H      4.004998   -4.030599    4.212555
H      5.213927   -1.833723    4.354676
H      2.895036   -2.141290    6.645194
H      0.586914   -0.886724    6.889817
H     -1.279584    0.215697    5.733223
H     -2.686510    1.253226    1.654356
H      1.479026   -2.347709   -0.197231
H      2.680312   -0.170220   -0.057531
H      0.428533   -0.168823   -3.373670
H     -2.695501    1.410809   -0.996941
H     -4.929808    2.359384   -5.656052
H     -2.851224    2.747408   -7.859906
H     -0.250693    2.412337   -8.000541
H      3.060918   -1.930510    1.975670
