44

C     -3.331266    0.957343   -5.068750
C     -3.665666    2.138648   -5.737970
C     -3.135165    3.162127   -4.941285
C     -3.052634    4.505493   -4.925622
S     -2.178780    4.948242   -3.499507
C     -1.944117    3.305988   -2.955615
C     -1.232964    2.909375   -1.725860
C     -1.081115    1.553497   -1.346380
C     -0.400915    1.184819   -0.171158
N     -0.161934   -0.074159    0.345542
C      0.547403   -0.019400    1.530747
C      0.756715    1.339703    1.757108
C      1.480969    1.729569    2.936637
N      1.741614    2.984201    3.258790
S      2.585955    2.864822    4.686615
N      2.611386    1.208732    4.881392
C      1.953884    0.672442    3.827318
C      1.740792   -0.721262    3.597745
C      2.240443   -1.718968    4.527825
C      2.068497   -3.108264    4.366872
C      1.361549   -3.382361    3.205745
C      1.035982   -4.641464    2.775041
N      0.342786   -4.490893    1.597969
C      0.225626   -3.150041    1.278233
C      0.853300   -2.424229    2.264891
C      1.007099   -1.032337    2.395153
C      0.177093    2.068932    0.717457
C      0.070555    3.463619    0.410457
N      0.579090    4.412262    1.176524
S      0.184799    5.816653    0.385729
N     -0.629243    5.197211   -0.923294
C     -0.641696    3.848943   -0.820146
C     -2.540419    2.513432   -3.883873
O     -2.623184    1.150152   -3.898121
H     -3.524503   -0.082545   -5.297918
H     -4.214435    2.212950   -6.665689
H     -3.424889    5.246712   -5.618136
H     -1.492135    0.759895   -1.963047
H     -0.472563   -0.923482   -0.097636
H      2.784985   -1.376670    5.410147
H      2.445809   -3.839596    5.067186
H      1.226852   -5.623905    3.185539
H     -0.028529   -5.252703    1.044816
H     -0.298253   -2.885777    0.374841
