41

C     -1.662232    1.612214    7.599863
O     -1.867118    0.762021    6.470772
C     -1.099929    1.087244    5.393386
O     -0.303666    2.014832    5.366869
N     -1.379918    0.207525    4.375888
N     -0.751811    0.294369    3.167495
C     -1.102820   -0.589709    2.283928
C     -0.526209   -0.631507    0.964982
S      0.889115    0.284287    0.634791
C      0.943011   -0.303724   -0.986855
N      1.922211    0.029755   -1.892318
C      2.540967    1.360961   -1.809366
C      3.847299    1.402531   -2.601804
C      3.645920    0.941935   -4.039143
C      3.010460   -0.441596   -4.058418
C      1.708172   -0.466504   -3.261495
N     -0.035613   -1.138973   -1.258368
C     -0.886446   -1.322670   -0.175745
C     -2.138203   -2.269373   -0.393021
C     -2.351826   -2.914195   -1.597003
C     -3.533397   -3.710998   -1.591165
C     -4.186591   -3.644281   -0.381865
S     -3.372888   -2.627044    0.723938
H     -2.318756    1.269572    8.404512
H     -1.926259    2.646010    7.355594
H     -0.626520    1.546380    7.947833
H     -2.070880   -0.507560    4.561628
H     -1.859143   -1.342700    2.544725
H      2.788748    1.636738   -0.778864
H      1.843977    2.115734   -2.195503
H      4.253428    2.420218   -2.591673
H      4.588530    0.755583   -2.115572
H      4.608050    0.918784   -4.562542
H      3.003645    1.653929   -4.571327
H      3.713181   -1.169024   -3.632676
H      2.817575   -0.747772   -5.092653
H      1.348917   -1.503399   -3.257094
H      0.948348    0.146425   -3.763391
H     -1.684710   -2.818227   -2.446361
H     -3.883461   -4.299174   -2.430696
H     -5.103113   -4.142191   -0.095729
