49

C      1.459753    5.105875    5.326748
C      0.359579    5.929624    5.596528
C     -0.695504    5.375559    4.856135
C     -2.005089    5.580533    4.605509
S     -2.532522    4.331775    3.514119
C     -0.968116    3.576866    3.437970
C     -0.676013    2.395950    2.632549
C     -1.591337    1.353235    2.511086
C     -1.302083    0.229134    1.720306
C     -0.102170    0.085018    0.974663
C      0.838766    1.105057    1.201865
C      2.092173    0.935243    0.662311
N      2.477978   -0.166973    0.000977
C      1.597968   -1.156425   -0.258761
C      2.054119   -2.352267   -0.875169
C      3.414611   -2.668027   -1.201057
C      4.546241   -1.901698   -1.028717
N      5.630739   -2.621404   -1.479213
C      5.221248   -3.850984   -1.935913
C      3.860887   -3.895473   -1.771225
C      3.073204   -4.972880   -2.103193
C      1.723021   -4.678807   -1.807900
C      1.180191   -3.437653   -1.231712
C     -0.218850   -3.225771   -1.043637
C     -1.192669   -4.178191   -1.461045
C     -2.565021   -3.947056   -1.398777
C     -3.015686   -2.729810   -0.946035
C     -2.089203   -1.786775   -0.503899
C     -0.686502   -2.013262   -0.456121
C      0.236173   -1.034158    0.088589
C      0.549378    2.247054    1.979635
C     -0.133509    4.292821    4.222922
O      1.188676    4.060591    4.462905
H      2.485838    5.133592    5.670130
H      0.356654    6.795520    6.242655
H     -2.683541    6.341684    4.963274
H     -2.537491    1.377037    3.047932
H     -2.031468   -0.576441    1.753564
H      2.876212    1.676728    0.790049
H      4.695927   -0.908393   -0.629787
H      6.586454   -2.290585   -1.468803
H      5.933758   -4.564225   -2.326734
H      3.406953   -5.906715   -2.529966
H      1.039913   -5.490608   -2.052031
H     -0.903872   -5.135602   -1.883172
H     -3.264758   -4.701825   -1.746219
H     -4.076861   -2.497539   -0.947025
H     -2.499335   -0.813090   -0.248344
H      1.308948    3.020839    2.085976
