37

O     -1.731218    1.349510    3.421418
C     -1.155856    1.359183    2.335087
C      0.295840    1.744286    2.193466
C      1.002563    1.028810    1.040762
C      1.529831   -0.336438    1.460053
C      0.700276   -1.462123    1.588252
C      1.224966   -2.693117    1.994616
C      2.582729   -2.818655    2.283528
C      3.417805   -1.710997    2.167770
C      2.889505   -0.487877    1.762634
F      3.716812    0.563731    1.669477
C      0.140164    0.992266   -0.205508
C      0.728416    0.866139   -1.474489
C     -0.097736    0.770575   -2.581568
C     -1.489640    0.800096   -2.450164
C     -2.088717    0.929137   -1.208547
C     -1.262793    1.029163   -0.086411
N     -1.847781    1.130680    1.178296
C     -2.152057    0.720847   -3.790103
C     -1.008328    0.173759   -4.656345
C      0.299953    0.666014   -4.020940
H      0.306034    2.828115    2.016296
H      0.807586    1.563331    3.145999
H      1.868492    1.657448    0.787448
H     -0.363660   -1.400043    1.371682
H      0.568560   -3.555506    2.087075
H      2.986668   -3.776445    2.600749
H      4.476545   -1.789151    2.393145
H      1.808524    0.832211   -1.587795
H     -3.169534    0.958119   -1.121575
H     -2.847304    1.011697    1.283551
H     -2.455717    1.719747   -4.119644
H     -3.012622    0.046133   -3.793155
H     -1.030172   -0.924722   -4.627665
H     -1.100514    0.469707   -5.705989
H      1.113796   -0.046763   -4.180428
H      0.581435    1.651354   -4.406230
