47

Si     0.836164    2.650562   -4.438649
C     -0.699544    1.674510   -4.792946
C     -1.098978    0.947984   -3.725603
C     -2.254126    0.025290   -3.737362
C     -3.180332    0.014223   -4.800764
C     -4.312181   -0.794279   -4.762780
C     -4.550219   -1.574702   -3.645130
C     -3.638796   -1.568611   -2.584700
C     -2.442897   -0.819605   -2.616708
C     -1.477553   -0.796740   -1.484399
C     -1.410526   -1.744017   -0.434911
C     -1.953393   -3.004549   -0.347150
O     -1.646837   -3.579470    0.854450
C     -0.862330   -2.698461    1.538316
C     -0.658807   -1.583223    0.770993
C      0.107191   -0.473645    1.071430
C      0.810879   -0.195324    2.318161
C      1.440543    0.998116    2.325979
Si     1.221527    1.897581    0.670046
C      0.170961    0.454452   -0.018012
C     -0.507670    0.273218   -1.288441
C     -0.246176    1.095588   -2.515006
C      0.826445    1.887622   -2.735489
C      2.221619    1.623659    3.389419
N      3.059742    2.666562    3.075560
C      3.825295    3.291541    4.023811
C      3.882840    3.004210    5.380768
C      3.037812    1.947112    5.762474
N      2.907158    1.481199    7.014690
S      1.797227    0.251863    6.946650
N      1.435992    0.251694    5.330286
C      2.173923    1.222031    4.756639
H      0.593289    4.112759   -4.404724
H      1.996502    2.211541   -5.250163
H     -1.134797    1.711873   -5.777177
H     -3.047565    0.654495   -5.667446
H     -5.018946   -0.785426   -5.587792
H     -5.454393   -2.174613   -3.580351
H     -3.925001   -2.135735   -1.705529
H     -2.533753   -3.637094   -1.002698
H     -0.531423   -3.028369    2.512752
H      0.794109   -0.901529    3.136587
H      0.416108    3.141177    0.795810
H      2.516117    2.036399   -0.049639
H      1.674075    2.089061   -2.111599
H      4.441127    4.096860    3.622769
H      4.511382    3.539875    6.077159
