40

Si     3.701133   -0.838229    4.260574
C      4.758223   -1.559730    2.902008
C      4.191366   -1.357103    1.698299
C      4.733046   -1.829820    0.442068
C      4.044787   -1.589462   -0.687719
C      2.784788   -0.850220   -0.685203
C      2.209135   -0.352888    0.438323
C      0.992393    0.395279    0.257092
C      0.592841    1.580371    0.914383
C     -0.661932    1.900828    0.365570
N     -1.754738    2.737664    0.312379
C     -2.645087    2.277303   -0.626560
C     -2.072980    1.158876   -1.128745
O     -2.739863    0.492629   -2.091715
C     -3.882123    1.272731   -2.224293
C     -4.971091    1.064620   -3.100406
C     -6.063836    1.976808   -3.098484
C     -5.919648    3.023938   -2.181620
C     -6.802910    4.051075   -1.953021
O     -6.313166    4.888965   -0.974684
C     -5.095311    4.393403   -0.566934
C     -4.859843    3.272856   -1.292605
C     -3.819796    2.340659   -1.343734
C     -0.911091    0.946298   -0.535427
O      0.021428    0.012558   -0.684749
C      2.902518   -0.615085    1.712554
C      2.482698   -0.282544    2.951713
H      4.351775    0.308152    4.939987
H      3.135434   -1.875026    5.156628
H      5.678799   -2.079425    3.113862
H      5.668198   -2.377667    0.429753
H      4.416403   -1.937185   -1.646746
H      2.329793   -0.696937   -1.661748
H      1.157812    2.113171    1.665096
H     -1.878277    3.568374    0.875784
H     -4.968087    0.209915   -3.770353
H     -6.916469    1.852078   -3.754413
H     -7.763713    4.334026   -2.359582
H     -4.589045    4.953835    0.204377
H      1.572353    0.219991    3.231971
