49

O      0.033040   -0.554152    0.032289
C     -1.158517   -0.474822    0.316704
C     -2.192760   -1.519726   -0.057577
C     -1.633005   -2.615393   -0.957019
S     -1.425815   -2.015302   -2.670438
C      0.018743   -3.012658   -3.187684
C      1.342030   -2.598574   -2.554883
C      1.842173   -1.281170   -3.103098
O      2.486728   -1.220715   -4.146406
N      1.492530   -0.189254   -2.351272
C      1.911438    1.147645   -2.683690
C      3.137115    1.545865   -1.903840
C      3.021452    2.210332   -0.674483
C      4.161988    2.566291    0.046630
C      5.427304    2.257732   -0.450329
C      5.553564    1.580256   -1.661680
C      4.414067    1.221492   -2.383142
N     -1.684052    0.565465    1.046325
C     -0.862725    1.685940    1.440640
C     -1.609339    2.585693    2.386393
C     -1.697452    2.263161    3.748121
C     -2.410323    3.080991    4.625517
C     -3.051112    4.222827    4.148417
C     -2.981238    4.547315    2.794548
C     -2.265277    3.731705    1.916261
H     -3.058745   -1.030990   -0.519725
H     -2.534664   -1.977602    0.879489
H     -2.337858   -3.452272   -0.992502
H     -0.689988   -2.997041   -0.558492
H      0.086886   -2.931313   -4.278440
H     -0.195483   -4.062074   -2.957915
H      1.294637   -2.564399   -1.462540
H      2.105389   -3.349313   -2.795649
H      1.048006   -0.334793   -1.442971
H      1.079299    1.818132   -2.443041
H      2.095735    1.238007   -3.760531
H      2.039938    2.445162   -0.271591
H      4.064226    3.083150    0.997715
H      6.315676    2.534154    0.111649
H      6.537685    1.327092   -2.044773
H      4.521003    0.680710   -3.322398
H     -2.689352    0.673888    1.104643
H      0.057204    1.314395    1.906699
H     -0.565915    2.227202    0.534789
H     -1.207164    1.370504    4.131924
H     -2.468821    2.825797    5.680576
H     -3.606356    4.858587    4.832669
H     -3.486376    5.435713    2.424188
H     -2.223629    3.997502    0.861921
