41

C     -6.725341   -0.313852    2.241374
C     -5.532999   -0.830656    3.047368
C     -4.361949   -0.393647    2.530812
C     -4.616730    0.413466    1.388398
C     -6.020565    0.484617    1.198462
C     -6.370640    1.261659    0.130294
S     -4.961947    1.904105   -0.628670
C     -3.873981    1.119825    0.479087
C     -2.449863    1.270079    0.346083
C     -1.738750    2.374658   -0.082975
N     -0.364623    2.234408   -0.123592
C     -0.019208    1.020293    0.254061
S     -1.340718    0.008515    0.692552
C      1.356863    0.603225    0.312751
S      2.671266    1.749963    0.334752
C      3.906210    0.532185    0.409341
C      5.310255    0.876565    0.493848
C      6.159948    0.404144    1.500199
N      7.500771    0.661593    1.657492
C      8.162948    1.460155    0.770130
C      7.437404    1.999795   -0.311096
N      7.923111    2.791552   -1.281136
S      6.651476    3.119250   -2.296270
N      5.437722    2.268522   -1.556202
C      5.965765    1.696243   -0.458341
C      3.279061   -0.664596    0.423884
C      3.570287   -2.051229    0.471578
C      2.338069   -2.733717    0.430939
N      1.264766   -1.850479    0.355267
C      1.900898   -0.638039    0.363286
H     -7.290784   -1.142584    1.806863
H     -7.374047    0.310215    2.862249
H     -5.632264   -1.457196    3.921527
H     -3.383815   -0.614266    2.933630
H     -7.355820    1.497309   -0.247633
H     -2.171284    3.324576   -0.375301
H      5.758192   -0.243149    2.281154
H      9.217432    1.636113    0.936219
H      4.542976   -2.523596    0.518777
H      2.139805   -3.798412    0.442735
H      0.268357   -2.029210    0.304573
