32

N     -4.895002   -3.487000   -0.718194
C     -3.905549   -2.507168   -0.920563
C     -4.252760   -1.324550   -1.637172
C     -3.385082   -0.226511   -1.812214
C     -2.141342   -0.367171   -1.176728
N     -1.107771    0.480802   -1.145501
N     -0.189818   -0.153314   -0.380671
C      1.100988    0.389654   -0.063804
C      1.931167   -0.415371    0.749784
C      3.200869    0.005283    1.120526
C      3.666709    1.237571    0.686460
C      2.878691    2.068965   -0.120967
C      3.418144    3.303764   -0.521610
C      2.698506    4.183380   -1.322127
C      1.424557    3.835557   -1.732683
C      0.874531    2.609345   -1.341584
C      1.569698    1.672211   -0.522397
N     -0.560505   -1.378413    0.090964
C     -1.795002   -1.544664   -0.399164
C     -2.678133   -2.627814   -0.237199
H     -5.596735   -3.528637   -1.451159
H     -4.527567   -4.404834   -0.483764
H     -5.246083   -1.255456   -2.081289
H     -3.658196    0.656789   -2.373027
H      1.597669   -1.388378    1.109006
H      3.825009   -0.626795    1.746690
H      4.665426    1.547846    0.989085
H      4.419151    3.595089   -0.208155
H      3.132424    5.133170   -1.621163
H      0.847027    4.511029   -2.358520
H     -0.128631    2.412072   -1.704705
H     -2.418889   -3.484518    0.369051
