24

C      2.983158    2.397651   -1.500418
C      1.721769    2.047548   -0.730578
S      0.767435    0.769077   -1.609117
C      1.106857   -0.504294   -0.378469
C     -0.099167   -1.356535   -0.066366
C     -0.216570   -2.639882   -0.627817
C     -1.330757   -3.439364   -0.360569
C     -2.347567   -2.965943    0.466934
C     -2.249023   -1.692433    1.021075
Cl    -3.506795   -1.104133    2.037300
C     -1.138932   -0.889462    0.758367
N      1.613692    0.171587    0.775891
C      2.065333    1.455560    0.625100
O      2.684187    2.037296    1.506479
H      2.748722    2.788545   -2.496364
H      3.647674    1.532978   -1.612892
H      3.552151    3.168740   -0.968705
H      1.087648    2.926968   -0.584604
H      1.925428   -1.132256   -0.748317
H      0.559927   -3.026898   -1.285946
H     -1.408240   -4.430139   -0.802217
H     -3.213678   -3.589900    0.670538
H     -1.085576    0.106969    1.192756
H      1.871927   -0.329327    1.615177
