37

C     -0.389992   -2.482205   -1.471850
N     -0.811876   -1.128630   -1.210369
C     -0.689024   -0.467445   -0.006340
N     -0.110397   -1.051493    1.068624
C      0.325168   -0.192791    2.165866
C      1.756027    0.250070    2.078358
C      2.232918    1.317089    1.339597
N      3.587057    1.389080    1.506654
C      4.017628    0.379709    2.335850
C      5.309162    0.064158    2.774928
C      5.454566   -1.035798    3.624831
C      4.351011   -1.788249    4.018331
C      3.066274   -1.459081    3.570098
C      2.890517   -0.352983    2.712219
N     -1.206044    0.737070   -0.083105
C     -1.651654    0.874629   -1.371705
C     -2.275040    1.972277   -1.984313
C     -2.640208    1.876291   -3.331994
C     -2.389609    0.709765   -4.055846
C     -1.770117   -0.396241   -3.461166
C     -1.413490   -0.279984   -2.111154
H     -0.771000   -2.818704   -2.438031
H      0.702768   -2.506586   -1.476326
H     -0.786113   -3.133308   -0.687969
H      0.541189   -1.812331    0.917944
H      0.192530   -0.762798    3.093795
H     -0.325908    0.684008    2.280407
H      1.709276    2.021839    0.705372
H      4.190172    2.077374    1.078524
H      6.170863    0.648875    2.470274
H      6.444862   -1.305976    3.984391
H      4.486226   -2.638935    4.681685
H      2.215114   -2.054046    3.887412
H     -2.465426    2.873894   -1.413211
H     -3.124125    2.720763   -3.816428
H     -2.682384    0.657655   -5.102584
H     -1.580742   -1.297964   -4.032507
