31

C     -0.626902    0.077178    0.732486
C      0.763219    0.294860    0.165007
C      0.836175   -0.360471   -1.007998
C     -0.412975   -1.020818   -1.294884
C     -1.294302   -0.792141   -0.306345
C     -2.680735   -1.271755   -0.190430
C     -3.469169   -0.933934    0.921277
C     -4.788240   -1.385409    1.039852
C     -5.344716   -2.184784    0.046953
C     -4.582491   -2.532168   -1.063365
C     -3.263668   -2.079555   -1.179828
C      1.832955    1.047474    0.731545
S      3.411580    1.228282   -0.027546
C      4.056523    2.218428    1.234115
C      3.092670    2.374843    2.155283
O      3.191579    3.087136    3.310158
C      1.922400    2.881681    3.817400
C      1.103026    2.085591    3.006778
C      1.898438    1.750418    1.893039
H     -1.148939    1.034039    0.843732
H     -0.569575   -0.433936    1.699935
H      1.680278   -0.418895   -1.679388
H     -0.565316   -1.603223   -2.190414
H     -3.074865   -0.311818    1.720204
H     -5.378844   -1.110511    1.910001
H     -6.368994   -2.536020    0.137892
H     -5.010857   -3.156594   -1.843203
H     -2.703793   -2.374261   -2.063060
H      5.060747    2.615555    1.235153
H      1.747827    3.367331    4.768738
H      0.081867    1.807479    3.221397
