42

C     -5.293492    0.229630   -5.832963
O     -4.238154   -0.104049   -4.931158
C     -3.465424   -1.156363   -5.333036
O     -3.652754   -1.770590   -6.377020
C     -2.411714   -1.443426   -4.373301
S     -2.240570   -0.480355   -2.898973
C     -0.837624   -1.552253   -2.503579
C     -0.538273   -2.540664   -3.438968
C      0.516926   -3.344474   -3.183514
S      1.205816   -2.847466   -1.686939
C      0.036136   -1.595108   -1.446722
C      0.046806   -0.747743   -0.289337
C      1.123114   -0.053091    0.218185
C      0.816522    0.695262    1.408508
C     -0.517658    0.531998    1.775000
S     -1.336258   -0.522622    0.682261
C     -1.035601    1.182789    2.904922
O     -2.374260    1.021220    3.241088
C     -2.510268   -0.045594    4.181187
C     -0.246148    2.074620    3.658225
C     -0.580072    2.901438    4.788101
C      0.482361    3.640380    5.248295
S      1.891102    3.357800    4.335737
C      1.091998    2.231817    3.295640
C      1.627371    1.524594    2.208390
O      2.957183    1.709433    1.849976
C      3.771319    0.728209    2.494056
C     -1.459690   -2.458432   -4.500614
F     -1.417247   -3.292196   -5.551529
H     -5.987990   -0.609742   -5.937919
H     -5.839540    1.079865   -5.415008
H     -4.888185    0.523658   -6.806190
H      0.926839   -4.162555   -3.760014
H      2.104618   -0.056454   -0.242213
H     -2.010535    0.193606    5.125880
H     -2.126128   -0.989097    3.779041
H     -3.576977   -0.175346    4.386855
H     -1.568547    2.947092    5.229438
H      0.496138    4.337163    6.075212
H      4.811884    0.925586    2.219724
H      3.691211    0.790713    3.584508
H      3.517883   -0.281534    2.153918
