37

C     -0.888454   -1.718345   -4.813489
O     -1.320677   -1.095608   -3.606251
C     -0.440884   -1.075379   -2.564568
C      0.828616   -1.619829   -2.550024
C      1.629216   -1.486047   -1.410540
C     -0.911489   -0.430126   -1.421690
C     -0.146272   -0.330896   -0.237837
C      1.189820   -0.824444   -0.236228
C      2.041690   -0.630185    0.898752
C      3.382100   -1.095483    0.991046
C      4.177198   -0.850865    2.111935
C      3.657081   -0.132187    3.172601
C      2.345338    0.329461    3.102566
C      1.541651    0.088652    1.994385
N      0.306402    0.550592    2.035588
N     -0.624000    0.271646    0.885240
C     -1.998312    0.649684    1.108600
C     -2.237167    1.868891    1.747802
C     -3.550695    2.245425    2.026822
C     -4.606310    1.395632    1.691856
C     -4.355800    0.161111    1.089630
C     -3.045505   -0.225166    0.804674
H     -0.685760   -2.782571   -4.654924
H     -0.014112   -1.206375   -5.228598
H     -1.701599   -1.636712   -5.541009
H      1.243095   -2.137438   -3.411761
H      2.629692   -1.910550   -1.481812
H     -1.898399    0.020746   -1.502389
H      3.846870   -1.662276    0.187321
H      5.200460   -1.220733    2.150412
H      4.265366    0.067481    4.052547
H      1.947264    0.888809    3.948693
H     -1.425011    2.538550    2.018288
H     -3.758185    3.198931    2.510767
H     -5.631152    1.691302    1.915755
H     -5.187893   -0.503049    0.858509
H     -2.876125   -1.212769    0.384968
