33

C      3.250090    1.742111    4.336529
C      3.831275    1.839350    3.081467
C      3.088756    1.533702    1.936869
C      1.733869    1.120628    2.037439
C      1.176457    1.032217    3.313534
C      1.920386    1.339004    4.470899
S     -0.459470    0.521375    3.250550
C     -0.458853    0.410202    1.538954
C     -1.540440    0.022801    0.718924
C     -1.385726   -0.024180   -0.676750
C     -2.506484   -0.428451   -1.543194
C     -2.361960   -1.494546   -2.454115
C     -3.402852   -1.913312   -3.296193
C     -4.602148   -1.213366   -3.185885
N     -5.811840   -1.316549   -3.812582
N     -6.688422   -0.402351   -3.366282
N     -6.072085    0.318117   -2.436943
C     -4.794753   -0.158400   -2.306499
C     -3.742876    0.245418   -1.472204
C     -0.146728    0.321812   -1.220747
C      0.924264    0.707639   -0.404452
C      0.780720    0.756911    1.004713
H      3.831403    1.981187    5.223958
H      4.867361    2.154423    2.984510
H      3.559496    1.615616    0.960458
H      1.466608    1.263773    5.455278
H     -2.489283   -0.248942    1.176541
H     -1.413043   -2.029035   -2.505686
H     -3.272483   -2.738723   -3.987352
H     -6.107089   -1.963885   -4.532508
H     -3.894511    1.077512   -0.791884
H      0.000283    0.308405   -2.299439
H      1.872888    0.974478   -0.863536
