38

N     -2.133330    1.025827    3.698314
C     -1.087591    0.488228    2.996083
O     -1.145666   -0.652737    2.558683
C      0.094231    1.365809    2.799877
C      0.524701    2.197774    3.844655
C      1.643085    3.017738    3.674511
C      2.335427    3.012897    2.463839
C      1.917277    2.183447    1.422797
C      0.809896    1.347970    1.596370
O      0.384831    0.589966    0.537908
C      1.222750   -0.562684    0.370400
C      0.444782   -1.656530   -0.350353
C     -0.136084   -1.212007   -1.673319
C      0.006025   -2.501199   -2.406669
C     -0.717345   -2.770683   -3.670728
C     -1.484974   -1.783497   -4.299171
C     -2.154600   -2.071805   -5.491562
C     -2.058704   -3.341477   -6.060184
C     -1.292126   -4.326608   -5.440345
C     -0.621935   -4.042748   -4.248929
N      0.832600   -3.341358   -1.865708
O      1.326850   -2.737741   -0.684594
H     -2.981521    0.473955    3.721020
H     -2.216920    2.021872    3.845697
H      0.010226    2.196046    4.802386
H      1.977560    3.657279    4.488161
H      3.201546    3.656855    2.329807
H      2.449349    2.196274    0.475302
H      2.108944   -0.282901   -0.213868
H      1.579628   -0.956380    1.332539
H     -0.350086   -2.048512    0.296146
H      0.473546   -0.452298   -2.172753
H     -1.169282   -0.872497   -1.576166
H     -1.573346   -0.783708   -3.885127
H     -2.750971   -1.304230   -5.978903
H     -2.580372   -3.563390   -6.987914
H     -1.214275   -5.316774   -5.882383
H     -0.026677   -4.820493   -3.774040
