46

C     -2.550194   -0.402846    4.834533
C     -1.720926   -1.238729    3.920564
C     -1.161814   -0.461611    2.977321
C     -0.282130   -0.869483    1.877338
C      0.218998   -2.176696    1.773656
C      1.141469   -2.491814    0.781973
N      1.592333   -1.538506   -0.068635
C      1.086485   -0.282621    0.056747
C      0.103352    0.122354    0.956527
C     -0.432107    1.506713    1.048759
C     -0.320500    2.505474    0.047498
C      0.046272    2.378483   -1.274696
N      0.004721    3.628966   -1.856851
C     -0.438660    4.557051   -0.947226
C     -0.681604    3.881912    0.222495
C     -1.197395    4.409021    1.393997
C     -1.533370    5.803896    1.662645
C     -2.022943    5.987228    2.899516
Si    -2.130807    4.392810    3.875733
C     -1.432190    3.412143    2.399814
C     -1.134516    2.006867    2.231359
C     -1.553183    0.936808    3.184764
C     -2.378250    0.965741    4.248773
C      1.699070   -3.856817    0.620102
C      2.646851   -4.160774   -0.360374
C      3.136075   -5.461454   -0.467767
C      2.671451   -6.435574    0.403826
C      1.733122   -6.066344    1.350156
N      1.241412   -4.813493    1.477147
H     -3.599141   -0.712306    4.810024
H     -2.177191   -0.443417    5.861945
H     -1.619052   -2.307324    4.027677
H     -0.086982   -2.948089    2.472556
H      1.573525    0.419544   -0.609852
H      0.306373    1.531713   -1.892754
H      0.230474    3.825015   -2.823751
H     -0.563552    5.592535   -1.232324
H     -1.389464    6.588632    0.933977
H     -2.337692    6.925428    3.329471
H     -3.543346    4.053872    4.186095
H     -1.219329    4.400124    5.047323
H     -2.917231    1.798670    4.659269
H      3.004462   -3.390665   -1.037872
H      3.873321   -5.706036   -1.226883
H      3.031114   -7.456567    0.347575
H      1.337328   -6.791096    2.055946
