22

C     -3.619936    4.373065   -0.801570
N     -2.690296    3.498930   -1.117890
C     -2.092203    3.030595    0.041907
C     -0.929839    1.964097    0.030083
N     -0.373816    1.531073    1.142828
C      0.611149    0.607340    0.842823
C      1.417994   -0.068632    1.767134
C      2.379192   -0.980020    1.330231
S      3.486826   -1.932680    2.241256
C      4.098330   -2.593768    0.785158
N      3.547395   -2.165416   -0.327661
C      2.561433   -1.240820   -0.028341
C      1.754381   -0.564611   -0.951978
C      0.793351    0.346654   -0.514641
S     -0.312892    1.298200   -1.423485
C     -2.583508    3.562148    1.217808
S     -3.833122    4.683974    0.872197
H     -4.221635    4.873125   -1.549582
H      1.283857    0.127471    2.827226
H      4.896215   -3.325069    0.788482
H      1.888948   -0.761110   -2.012094
H     -2.273265    3.347591    2.230831
