43

Si     1.272691    4.233914   -6.910116
C      3.083765    3.783653   -7.021119
C      3.389707    2.819715   -6.133761
C      4.708485    2.254477   -5.945532
C      4.873717    1.300374   -5.012361
C      3.763953    0.808995   -4.198176
C      2.496087    1.284803   -4.297346
C      1.485103    0.690547   -3.469094
C      0.298729    0.090582   -3.854784
C     -0.478735   -0.372129   -2.753957
C      0.132680   -0.134021   -1.539355
S      1.620703    0.686669   -1.751389
C     -0.344663   -0.464183   -0.195769
C     -1.656356   -0.189455    0.192192
C     -2.095207   -0.529094    1.475852
C     -1.216497   -1.144330    2.365715
N      0.055876   -1.440280    1.995040
C      0.459931   -1.093538    0.745783
C     -1.564757   -1.556386    3.725041
C     -0.933089   -2.623272    4.390582
N     -1.162392   -3.104990    5.659736
C     -2.099778   -2.526031    6.458458
C     -2.820980   -1.433745    5.944359
N     -3.779667   -0.744999    6.585065
S     -4.273074    0.448035    5.546997
N     -3.313051    0.132332    4.235196
C     -2.545095   -0.931718    4.543415
C      2.259997    2.340796   -5.297525
C      1.089323    2.964878   -5.548471
H      1.053923    5.618985   -6.429753
H      0.523704    3.855646   -8.133995
H      3.748327    4.271382   -7.715939
H      5.536913    2.610599   -6.545700
H      5.850874    0.859177   -4.841144
H      4.016123    0.011283   -3.503421
H      0.002726   -0.011920   -4.892236
H     -1.434497   -0.871573   -2.855619
H     -2.346984    0.297472   -0.491148
H     -3.122894   -0.315250    1.749872
H      1.487085   -1.365907    0.519424
H     -0.152399   -3.182029    3.867283
H     -2.244292   -2.933118    7.449892
H      0.140122    2.806179   -5.062747
