46

Si     0.355847   -0.376031    3.826741
C     -0.641132   -1.411175    5.092681
C     -1.867339   -1.726614    4.621133
C     -2.162035   -1.228335    3.307124
C     -1.128510   -0.485504    2.671454
C     -1.421000   -0.040550    1.417463
S     -3.018014   -0.536314    0.999238
C     -3.281141   -1.345679    2.512860
C     -4.533177   -1.986935    2.809682
C     -5.281689   -1.892544    3.969365
N     -6.448110   -2.635030    4.006462
C     -6.577470   -3.280242    2.868903
S     -5.331175   -3.046798    1.716563
C     -0.622165    0.740877    0.471127
C     -0.824801    2.124813    0.447643
C     -0.076602    2.931187   -0.401378
C      0.901026    2.383767   -1.250912
C      1.659126    3.295909   -2.109845
N      3.013172    3.429276   -1.908015
C      3.768784    4.278736   -2.671633
C      3.330082    5.095577   -3.707855
C      1.947488    4.997794   -3.950476
N      1.274827    5.680042   -4.890904
S     -0.312586    5.209804   -4.769546
N     -0.219937    4.128806   -3.515557
C      1.071333    4.080541   -3.138478
C      1.123275    0.973291   -1.240293
C      2.084546    0.346442   -2.072584
C      2.292497   -1.033184   -2.066078
C      1.539765   -1.835054   -1.226929
C      0.583671   -1.253711   -0.395876
C      0.351619    0.144603   -0.375321
H      1.546374   -1.134726    3.370602
H      0.613768    0.983999    4.361923
H     -0.209878   -1.683144    6.042682
H     -2.573234   -2.323641    5.187275
H     -5.023434   -1.285294    4.828783
H     -7.421299   -3.926186    2.664460
H     -1.569484    2.582774    1.095736
H     -0.258188    4.004899   -0.394439
H      4.824808    4.281537   -2.400531
H      3.984413    5.744457   -4.271660
H      2.700321    0.937384   -2.747903
H      3.041453   -1.473205   -2.718832
H      1.688855   -2.911260   -1.216124
H      0.005179   -1.919861    0.241831
