29

C     -5.239192    1.239071    1.704057
C     -5.686192   -0.064904    1.758345
N     -4.966915   -1.126824    1.334804
C     -3.748413   -0.922316    0.830426
N     -3.049650   -1.977096    0.416503
C     -1.808192   -1.781613   -0.098747
C     -1.174733   -0.551138   -0.241372
C      0.184551   -0.446990   -0.817219
C      1.014019   -1.454533   -1.282589
C      2.280330   -0.994717   -1.780449
C      3.370913   -1.712638   -2.327753
C      4.519717   -1.038136   -2.752028
C      4.601713    0.342781   -2.640488
C      3.540443    1.075593   -2.104256
C      2.385798    0.390288   -1.678611
S      0.968066    1.071873   -0.993912
C     -1.920165    0.545685    0.197176
C     -3.209564    0.373301    0.735586
C     -3.974707    1.461401    1.181721
H     -5.857213    2.056256    2.057844
H     -6.668067   -0.305675    2.156694
H     -1.331102   -2.708917   -0.403398
H      0.746297   -2.503681   -1.278631
H      3.318307   -2.794640   -2.420167
H      5.351167   -1.599994   -3.170826
H      5.498437    0.860882   -2.972563
H      3.606723    2.156385   -2.017871
H     -1.519166    1.553600    0.131252
H     -3.589210    2.475941    1.123192
