32

C      1.615865    1.130538    7.796580
C      1.409625    1.209016    6.323339
C      1.768991    2.218669    5.459319
C      1.400479    1.929471    4.112002
C      0.766891    0.705616    3.971382
C      0.260246    0.092138    2.757957
C     -0.442258   -1.093424    2.628165
C     -0.785455   -1.393825    1.276587
C     -0.332675   -0.438302    0.389280
C     -0.502602   -0.388812   -1.068723
C     -1.750329   -0.677626   -1.638901
C     -1.929501   -0.647219   -3.025657
C      0.565608   -0.081905   -1.922818
C      0.387787   -0.052119   -3.309945
C     -0.864511   -0.321252   -3.871211
C     -1.046950   -0.320855   -5.359884
S      0.487176    0.817969    1.215516
S      0.634125   -0.071277    5.501745
H      2.230572    0.262707    8.057379
H      0.657143    1.050335    8.319489
H      2.125796    2.025486    8.168335
H      2.272723    3.125622    5.771649
H      1.597511    2.603708    3.287369
H     -0.708875   -1.730974    3.462298
H     -1.332068   -2.278682    0.973303
H     -2.601075   -0.920248   -1.006071
H     -2.908946   -0.877146   -3.439149
H      1.554185    0.124876   -1.519144
H      1.237258    0.182007   -3.947798
H     -0.375141    0.401435   -5.835495
H     -0.838468   -1.316763   -5.762637
H     -2.070162   -0.037407   -5.628016
