43

C      1.759082    5.647339    1.868697
C      1.669038    4.606377    2.969350
N      0.928216    3.438584    2.553649
N     -0.399038    3.336622    2.729382
N     -0.708978    2.153769    2.216644
C      0.460911    1.604135    1.753959
N      0.428412    0.370243    1.171072
C      1.504469   -0.282346    0.619204
O      2.666758    0.109623    0.573479
C      1.127590   -1.657612    0.057652
O     -0.253154   -1.823419   -0.237457
C     -0.754997   -1.289004   -1.397179
C     -0.005562   -0.533202   -2.309371
C     -0.599292    0.008676   -3.457834
C      0.208901    0.846171   -4.405292
C     -1.963219   -0.185721   -3.673239
C     -2.717742   -0.935954   -2.771341
C     -2.128672   -1.509426   -1.630229
C     -2.979966   -2.312550   -0.651785
C     -3.847039   -3.371306   -1.342708
C     -3.840789   -1.377427    0.200877
N      1.518615    2.392896    1.955905
H      0.763198    5.985116    1.562819
H      2.260358    5.242771    0.982976
H      2.324666    6.518226    2.213846
H      2.668869    4.276371    3.271392
H      1.170958    5.020735    3.852529
H     -0.490722   -0.044398    1.091817
H      1.756719   -1.906422   -0.804407
H      1.371069   -2.385249    0.840695
H      1.051112   -0.335602   -2.154449
H      0.225642    1.885826   -4.064195
H      1.237731    0.476711   -4.470715
H     -0.212294    0.812827   -5.415577
H     -2.451433    0.248114   -4.543190
H     -3.780555   -1.058739   -2.966635
H     -2.325328   -2.868097    0.030170
H     -4.631282   -2.926354   -1.963752
H     -4.342043   -4.003755   -0.597387
H     -3.237714   -4.020580   -1.981007
H     -4.557587   -0.816599   -0.409189
H     -3.218765   -0.651011    0.735978
H     -4.407676   -1.945813    0.946065
