41

C      3.884757   -2.083318    4.055027
C      4.753444   -2.267872    3.003719
C      4.088486   -2.030763    1.784746
C      4.682338   -2.129260    0.482763
C      5.981280   -2.467727    0.231109
S      6.244016   -2.458019   -1.468434
C      4.609638   -2.001728   -1.789836
C      3.862431   -1.854976   -0.637890
C      2.491834   -1.485662   -0.628585
C      1.688949   -1.215664   -1.769123
C      0.339289   -0.858167   -1.595796
C     -0.717670   -0.534062   -2.490564
C     -1.845113   -0.241441   -1.746622
N     -1.501374   -0.421087   -0.426353
C     -0.177548   -0.779100   -0.307105
C      0.582917   -1.040623    0.841974
C      1.941487   -1.399331    0.684572
C      2.748404   -1.672430    1.851859
S      2.314153   -1.635264    3.539970
C     -3.183203    0.118432   -2.169592
C     -3.934868   -0.647690   -3.091348
C     -5.268743   -0.321929   -3.499116
C     -5.983431    0.802646   -3.033314
C     -5.231960    1.564175   -2.137596
C     -5.715664    2.715508   -1.567350
S     -4.545297    3.438992   -0.538383
C     -3.387225    2.209166   -0.864989
C     -3.885993    1.248752   -1.715472
H      4.093255   -2.189507    5.110849
H      5.788846   -2.553331    3.134894
H      6.785039   -2.716623    0.908769
H      4.310632   -1.871846   -2.819874
H      2.093391   -1.278237   -2.773118
H     -0.655229   -0.504765   -3.570811
H     -2.137191   -0.311056    0.351170
H      0.121854   -0.964400    1.821421
H     -3.484442   -1.548066   -3.511318
H     -5.759303   -0.986228   -4.211696
H     -6.990565    1.030610   -3.356532
H     -6.681860    3.183455   -1.696786
H     -2.406889    2.280249   -0.415068
