39

O     -1.563304   -3.385584   -7.033575
C     -1.937439   -3.643086   -5.895158
C     -2.905418   -4.741051   -5.651990
C     -3.298732   -4.972923   -4.395128
N     -2.884851   -4.252457   -3.307447
C     -1.921450   -3.240458   -3.440848
C     -1.476216   -2.518108   -2.328416
C     -0.539286   -1.475377   -2.462965
C     -0.071467   -0.729018   -1.285228
C      1.289765   -0.670068   -0.963487
C      1.729116    0.044577    0.153671
C      0.816914    0.715983    0.978263
C     -0.554253    0.660666    0.684876
C     -0.977961   -0.050922   -0.452051
N     -1.512485    1.349665    1.448964
C     -1.282387    2.073902    2.631679
C     -2.374360    2.666139    3.287133
C     -2.193687    3.424880    4.445161
C     -0.914916    3.612786    4.957868
C      0.181929    3.046432    4.308352
C      0.009402    2.282655    3.143645
S      1.473698    1.608813    2.376633
C     -0.064087   -1.161427   -3.748449
C     -0.513659   -1.859599   -4.871266
C     -1.442634   -2.889374   -4.713908
H     -3.245508   -5.312922   -6.503769
H     -3.995913   -5.773232   -4.163324
H     -3.095459   -4.607547   -2.381878
H     -1.852075   -2.772954   -1.339936
H      2.023513   -1.186672   -1.579486
H      2.794043    0.073886    0.374488
H     -2.036643   -0.066468   -0.703696
H     -2.477908    1.115856    1.260940
H     -3.380924    2.541859    2.896313
H     -3.050900    3.872132    4.941834
H     -0.767790    4.204150    5.857894
H      1.177504    3.208409    4.715726
H      0.652948   -0.353259   -3.884866
H     -0.145076   -1.598473   -5.860614
