35

C     -1.453190    5.326266   -3.841790
S     -1.698813    4.007554   -4.915789
C     -1.280539    2.851672   -3.712443
C     -0.941944    3.451620   -2.521250
C     -0.559675    2.775026   -1.349882
C     -0.315307    3.660639   -0.273022
C     -0.434940    5.084963   -0.368416
C     -0.813595    5.767573   -1.544502
C     -1.060512    4.889811   -2.600740
C     -0.424749    1.332137   -1.243726
C      0.370357    0.452738   -2.003450
C      0.128492   -0.835030   -1.469410
N      0.376949   -2.187386   -1.497498
C     -0.351304   -2.811896   -0.514386
C     -0.729965   -3.988894    0.165335
C     -0.453839   -5.350616    0.106857
N     -1.052370   -6.198371    0.982357
C     -1.914171   -5.702600    1.904384
C     -2.255947   -4.367379    2.046112
C     -1.631745   -3.521115    1.140824
O     -1.820842   -2.153505    1.096398
C     -1.022676   -1.818400    0.083031
C     -0.748326   -0.647847   -0.468782
N     -1.119892    0.616598   -0.272953
H     -1.617130    6.338222   -4.185417
H     -1.313126    1.799572   -3.958092
H      0.000319    3.245329    0.684630
H     -0.215163    5.675174    0.522057
H     -0.897958    6.845066   -1.594482
H      1.027027    0.728632   -2.817685
H      1.003182   -2.646444   -2.145214
H      0.225956   -5.795194   -0.610172
H     -2.347714   -6.450686    2.564463
H     -2.947846   -4.009881    2.794404
H     -1.773491    0.952651    0.423310
