41

C      1.814096    2.808812    3.134070
C      0.942035    2.993674    1.926156
C      0.830710    1.826663    1.279045
C      0.125577    1.477613    0.095901
C     -0.682447    2.223698   -0.785218
C     -1.116091    1.362225   -1.780761
N     -0.575975    0.119060   -1.499971
C      0.183011    0.170222   -0.360855
C      0.930380   -0.916949    0.289918
C      0.980647   -2.227012   -0.178369
N      1.659255   -3.251769    0.397015
C      2.331479   -2.914444    1.526891
C      3.131310   -3.712404    2.374784
C      3.576891   -2.879613    3.375906
O      3.103103   -1.616427    3.200868
C      2.339204   -1.632118    2.069117
C      1.641444   -0.589368    1.472956
C      1.600478    0.791340    1.984215
C      2.174902    1.351153    3.062032
C     -1.958452    1.592113   -2.926283
S     -2.347901    0.299421   -4.029988
C     -3.315012    1.303577   -5.041131
C     -3.340375    2.579584   -4.554830
C     -3.964976    3.876069   -4.942055
C     -3.453149    4.776765   -3.819494
C     -2.673410    4.089624   -2.953987
C     -2.576500    2.732887   -3.367819
H      1.265393    3.032610    4.053614
H      2.707137    3.437844    3.074753
H      0.484329    3.926753    1.638281
H     -0.918166    3.273522   -0.697408
H     -0.735789   -0.697177   -2.073310
H      0.449562   -2.517405   -1.080859
H      3.351106   -4.763284    2.263542
H      4.206176   -3.023470    4.243342
H      2.804653    0.853950    3.783737
H     -3.799290    0.900245   -5.919329
H     -3.608487    4.225161   -5.915060
H     -5.057022    3.821339   -4.930617
H     -3.692767    5.826748   -3.741523
H     -2.198408    4.512174   -2.081937
