34

C     -0.893027   -0.723591    6.269572
C     -0.701085    0.430930    5.526037
C     -0.497158    0.225521    4.163163
N     -0.278005    1.124325    3.146351
C     -0.128061    0.473178    1.944227
C      0.108193    0.976454    0.661820
C      0.210755    0.030817   -0.360727
C      0.459450    0.379967   -1.783047
N      0.560303   -0.497247   -2.767094
C      0.792424    0.130173   -3.974093
C      0.950119   -0.498094   -5.215775
C      1.181150    0.258653   -6.363921
S      1.407966   -0.251165   -7.992397
C      1.587720    1.383923   -8.467187
N      1.493309    2.283486   -7.514480
C      1.260462    1.650580   -6.305229
C      1.102376    2.276556   -5.062007
C      0.871381    1.517487   -3.914971
S      0.644955    2.022055   -2.291056
N      0.089544   -1.304440   -0.133609
C     -0.139553   -1.772771    1.117579
C     -0.254947   -0.890902    2.195258
C     -0.488211   -1.049312    3.596914
C     -0.692234   -2.151552    4.437133
N     -0.892892   -1.977526    5.766997
H     -1.060115   -0.665005    7.342419
H     -0.710848    1.412915    5.980339
H     -0.233529    2.126224    3.268019
H      0.202830    2.040877    0.493312
H      0.889367   -1.581675   -5.267685
H      1.769278    1.654703   -9.499200
H      1.162691    3.359768   -5.007509
H     -0.223886   -2.849162    1.216646
H     -0.700765   -3.175463    4.081108
