30

C      2.476893    1.884502   -1.898137
C      1.801409    3.064012   -1.326257
N      2.015279    4.344616   -1.602028
N      1.149934    5.115084   -0.826523
C      0.460283    4.263719   -0.124775
S     -0.777909    4.303516    1.045326
C     -0.672327    2.524934    1.046069
C     -1.544428    1.744415    1.916845
C     -2.357866    2.291158    2.899507
S     -3.241820    1.130530    3.787453
C     -2.566742   -0.138669    2.889918
C     -1.694129    0.299390    1.908909
C     -0.994261   -0.679782    1.001384
C     -1.624343   -2.080622    1.051534
C     -1.933245   -2.514981    2.488412
C     -2.938785   -1.566274    3.153512
N      0.199292    1.961642    0.252855
N      0.813541    2.986204   -0.386503
H      2.980903    1.309128   -1.115481
H      3.228947    2.189777   -2.632135
H      1.757135    1.231716   -2.401604
H     -2.484684    3.331139    3.168490
H      0.057096   -0.746458    1.307251
H     -1.021176   -0.327598   -0.035461
H     -2.554231   -2.084819    0.468244
H     -0.948060   -2.801522    0.578397
H     -1.001237   -2.531882    3.067897
H     -2.333351   -3.535091    2.494765
H     -3.939923   -1.753200    2.745591
H     -2.975298   -1.772536    4.229315
