49

C     -0.526476    1.601147    5.309426
C      0.496530    1.307125    6.410953
C      1.564181    0.631571    5.933899
C      1.329561    0.444443    4.558041
S      2.194950   -0.287722    3.354008
C      0.975660    0.084596    2.144964
C     -0.102462    0.791831    2.730602
C      0.146482    0.976418    4.131098
C     -1.197223    1.184259    1.891067
C     -2.282188    1.890893    2.469564
C     -3.378040    2.302173    1.716647
C     -3.415739    2.016532    0.366508
C     -2.356905    1.321477   -0.224005
C     -1.214564    0.880381    0.501669
C     -0.125939    0.168956   -0.089161
C     -0.104135   -0.158417   -1.513423
C      0.903908   -0.858531   -2.225902
C      0.861583   -1.139142   -3.642017
C      1.758770   -0.610032   -4.609856
C      1.692615   -0.883690   -6.024824
C      0.722787   -1.715215   -6.630607
C     -0.140736   -2.220357   -5.669079
C     -1.199267   -3.063580   -5.874402
O     -1.798884   -3.342296   -4.675844
C     -1.109913   -2.669060   -3.702535
C     -0.084277   -1.955256   -4.268793
C      1.931163   -1.217463   -1.361581
C      3.055770   -1.928517   -1.706591
N      3.801482   -2.078171   -0.567048
C      3.160477   -1.479244    0.496031
C      1.979475   -0.930860    0.045381
C      0.972893   -0.228289    0.758453
H     -0.652770    2.680346    5.185331
H     -1.481695    1.120589    5.538867
H      0.363762    1.610585    7.439012
H      2.430178    0.295978    6.484303
H     -2.297673    2.137105    3.524383
H     -4.195014    2.841754    2.187397
H     -4.264050    2.329285   -0.236673
H     -2.458687    1.132919   -1.288353
H     -0.938529    0.165724   -2.134272
H      2.552258    0.056391   -4.265561
H      2.440768   -0.413945   -6.665030
H      0.681914   -1.914465   -7.691534
H     -1.642353   -3.538769   -6.737773
H     -1.473763   -2.810568   -2.694407
H      3.393522   -2.346428   -2.645484
H      4.687073   -2.564155   -0.508827
H      3.636018   -1.527590    1.462235
