30

C      0.283453    1.057773    2.283029
C      0.174719    2.341907    2.746589
C      0.234088    2.587721    4.111569
C      0.401460    1.564650    5.027404
C      0.508905    0.281212    4.544507
C      0.453243   -0.003330    3.172381
C      0.567619   -1.306392    2.766431
C      0.510778   -1.576294    1.400712
C      0.344166   -0.563964    0.478624
C      0.228736    0.768121    0.917351
C      0.053632    1.821972   -0.069041
C     -0.009545    1.638850   -1.387432
B      0.109166    0.214159   -1.932163
C      0.054664   -0.161829   -3.441919
C      0.177155   -1.463742   -3.716690
C      0.348675   -2.465106   -2.697678
C      0.405707   -2.226556   -1.382406
N      0.292879   -0.896647   -0.906052
H      0.044969    3.168944    2.094505
H      0.148750    3.598707    4.480852
H      0.448856    1.754159    6.105568
H      0.640970   -0.556657    5.214908
H      0.699263   -2.139813    3.437625
H      0.596005   -2.582091    1.038681
H     -0.033584    2.851919    0.302683
H     -0.142049    2.467681   -2.080207
H     -0.074466    0.609172   -4.179858
H      0.135202   -1.698516   -4.785554
H      0.438384   -3.505630   -3.047718
H      0.536696   -3.074945   -0.746791
