43

C     -0.626953   -0.033409    3.528440
C     -0.011470   -0.678452    2.320915
C     -0.605043   -0.217151    1.208479
C     -0.362396   -0.542754   -0.195122
C     -1.159820    0.089497   -1.094499
C     -2.186770    1.068267   -0.715779
C     -2.432617    1.415615    0.568932
C     -3.476890    2.398143    0.834918
C     -4.871155    2.176922    0.705656
C     -5.875508    3.172351    0.988395
C     -5.594798    4.488178    1.428743
C     -4.223993    4.674652    1.546984
C     -3.575968    5.813381    1.942954
O     -2.223934    5.597810    1.924746
C     -2.015804    4.308530    1.512052
C     -3.220686    3.699317    1.271751
C     -1.631223    0.754864    1.586032
C     -1.660704    0.871389    2.922560
C      0.608364   -1.499104   -0.653272
N      0.812130   -2.700320   -0.138970
C      1.837642   -3.347975   -0.799930
C      2.443732   -2.642008   -1.816881
S      1.701494   -1.104872   -1.946729
C      3.523778   -3.047381   -2.670296
C      4.226173   -4.244157   -2.679368
C      5.196381   -4.160735   -3.708075
C      5.038556   -2.921324   -4.274430
O      4.037781   -2.244713   -3.660317
H     -1.090216   -0.779504    4.180613
H      0.116166    0.539081    4.091126
H      0.780268   -1.411876    2.359951
H     -1.085296   -0.107929   -2.161189
H     -2.744616    1.514947   -1.535719
H     -5.212971    1.193337    0.379815
H     -6.920265    2.887201    0.854886
H     -6.357057    5.224985    1.637216
H     -3.885139    6.801788    2.251317
H     -0.981125    4.001647    1.449078
H     -2.318784    1.508708    3.493448
H      2.101925   -4.350169   -0.486034
H      4.059923   -5.084117   -2.019331
H      5.919087   -4.910022   -3.998900
H      5.531895   -2.395558   -5.080166
