44

Si     1.847094    1.276001   -4.456915
C      1.834367    0.330262   -6.086849
C      1.294744   -0.893821   -5.940063
C      0.844451   -1.216509   -4.594862
C      1.047744   -0.249229   -3.677880
C      0.662334   -0.291243   -2.283469
C     -0.609065    0.070332   -1.823083
C     -0.995177    0.024033   -0.427659
C     -2.253520    0.458756    0.022198
C     -3.254973    0.999313   -0.747707
O     -4.321011    1.318502    0.032942
C     -3.998328    0.977076    1.312827
C     -2.730691    0.446685    1.369158
C     -2.031009   -0.061976    2.500748
C     -2.451940   -0.140433    3.864025
Si    -3.999309    0.480734    4.750804
C     -3.358799   -0.224316    6.352270
C     -2.167193   -0.825574    6.205939
C     -1.646358   -0.786651    4.829459
C     -0.455273   -1.369360    4.451284
C     -0.033867   -1.269136    3.118505
C     -0.736445   -0.574024    2.100918
C     -0.194420   -0.439212    0.699041
C      1.131087   -0.703432    0.175908
C      2.255548   -0.897470    0.950414
S      3.663771   -1.242092    0.033183
C      2.834396   -0.998110   -1.439258
C      1.516570   -0.651518   -1.234650
H      3.229084    1.513805   -3.970736
H      0.937963    2.448940   -4.490259
H      2.225732    0.764317   -6.993269
H      1.187870   -1.607155   -6.748240
H      0.379913   -2.171765   -4.380526
H     -1.334893    0.404588   -2.563491
H     -3.377512    1.222488   -1.797982
H     -4.786861    1.177776    2.019873
H     -4.084449    1.961973    4.776513
H     -5.233540   -0.199681    4.285444
H     -3.919991   -0.136230    7.269732
H     -1.618465   -1.302395    7.007390
H      0.151636   -1.915760    5.167944
H      0.864639   -1.828113    2.880425
H      2.382157   -0.845200    2.018909
H      3.377148   -1.091315   -2.369994
