37

Si    -1.513177   -1.161787    4.502990
C     -1.459130   -2.935695    3.930202
C     -0.931642   -3.024610    2.694480
C     -0.579660   -4.274830    2.066419
C      0.149298   -4.262300    0.939465
C      0.519709   -2.996682    0.261910
C      1.369007   -3.063837   -0.838703
C      1.702628   -1.907655   -1.546444
C      1.121215   -0.653720   -1.285018
C      1.506921    0.459886   -2.122892
N      2.484740    0.301379   -3.046942
C      2.868937    1.339267   -3.827423
C      2.318775    2.600460   -3.763984
C      1.305029    2.808276   -2.846339
C      0.889499    1.737797   -2.017250
C     -0.163646    1.767153   -1.072027
C     -0.982958    2.858272   -0.882922
S     -2.259676    2.512027    0.204225
C     -1.715303    0.900769    0.414497
C     -0.518959    0.655162   -0.223971
C      0.165735   -0.603301   -0.199208
C      0.000700   -1.741309    0.672358
C     -0.601167   -1.734939    2.041271
C     -0.729567   -0.678426    2.873042
H     -2.898467   -0.648895    4.632824
H     -0.621084   -0.908883    5.659938
H     -1.727957   -3.747882    4.586600
H     -0.852136   -5.209019    2.545108
H      0.457686   -5.195833    0.480081
H      1.805309   -4.010258   -1.149576
H      2.411063   -2.015260   -2.369368
H      3.664459    1.111476   -4.531759
H      2.664864    3.394438   -4.414988
H      0.843090    3.787651   -2.780345
H     -0.947242    3.833297   -1.346909
H     -2.325264    0.231620    1.002957
H     -0.436279    0.344063    2.701915
