38

C      2.286162   -2.809315   -0.882645
N      1.234524   -1.859654   -1.229842
C      0.389253   -2.117371   -2.325789
C      0.413578   -3.292786   -3.090951
C     -0.454439   -3.472499   -4.176316
C     -1.369930   -2.481284   -4.516934
C     -1.425126   -1.311899   -3.766296
C     -0.560361   -1.139281   -2.680833
O     -0.701265    0.045830   -1.988611
C      0.027048    0.194500   -0.825924
C     -0.258798    1.342771   -0.078067
C      0.405952    1.590803    1.126205
C      0.091098    2.793502    1.892959
N     -0.777713    3.750772    1.615665
C     -0.655930    4.619135    2.669904
C     -1.310115    5.824924    2.952340
C     -0.966513    6.503054    4.132224
C      0.002764    5.991960    5.005528
C      0.664956    4.787689    4.736120
C      0.295598    4.148732    3.558947
O      0.782047    2.973807    3.067031
C      1.357100    0.658532    1.558709
C      1.643995   -0.488966    0.802388
C      0.994494   -0.740510   -0.412633
H      1.897703   -3.583827   -0.212827
H      3.142928   -2.325553   -0.401675
H      2.719712   -3.291425   -1.765375
H      1.094469   -4.104962   -2.860029
H     -0.413652   -4.393196   -4.753247
H     -2.041923   -2.621591   -5.359093
H     -2.141235   -0.534564   -4.017008
H     -1.010372    2.040490   -0.442626
H     -2.059502    6.216910    2.273913
H     -1.462909    7.441832    4.370647
H      0.246725    6.542120    5.912775
H      1.416268    4.376990    5.398288
H      1.889728    0.809733    2.495893
H      2.379229   -1.177634    1.205327
