37

C     -2.384227   -3.182467   -5.927857
C     -3.534294   -3.801138   -5.503324
S     -3.951122   -3.346361   -3.914741
C     -2.588759   -2.299741   -3.754749
C     -1.843525   -2.323123   -4.926324
C     -2.342189   -1.534188   -2.508507
C     -3.186216   -1.604056   -1.385155
N     -3.045200   -0.943103   -0.200944
C     -1.954956   -0.141216   -0.148370
C     -1.063970   -0.007540   -1.207615
C     -1.223985   -0.690290   -2.409247
O     -0.053410    0.859053   -0.898317
C     -0.278379    1.305251    0.383256
C     -1.432482    0.696011    0.833886
C     -1.868860    1.007262    2.148654
C     -2.982601    0.496623    2.746804
S     -3.107539    1.156710    4.329680
C     -1.665511    2.093173    4.136899
C     -1.080995    1.923219    2.897600
C      0.116469    2.578661    2.479301
C      0.883533    3.498041    3.266829
C      2.057471    4.114728    2.802061
C      2.470312    3.787352    1.488644
N      3.561255    4.276825    0.880101
S      3.604171    3.592806   -0.629834
N      2.245300    2.647844   -0.580206
C      1.683249    2.820007    0.629899
C      0.497433    2.213396    1.133837
H     -1.948944   -3.336057   -6.907828
H     -4.151569   -4.500248   -6.050946
H     -0.937768   -1.749294   -5.077767
H     -4.071522   -2.237253   -1.389905
H     -0.504138   -0.553877   -3.204997
H     -3.716207   -0.204348    2.370426
H     -1.351224    2.709790    4.966482
H      0.560169    3.745703    4.277026
H      2.624076    4.807767    3.413168
