36

Si    -2.018908    3.577897   -0.446284
C     -1.962977    5.399112   -0.965046
C     -0.956130    5.622255   -1.833893
C     -0.173762    4.469351   -2.164050
C      0.897650    4.368699   -3.000662
S      1.475158    2.758553   -3.046913
C      0.268361    2.138756   -1.913608
C      0.280891    0.749032   -1.561757
C      1.161731   -0.169755   -2.030614
C      0.967273   -1.536348   -1.517765
C      1.717748   -2.650780   -1.830379
N      1.499254   -3.886885   -1.331740
C      0.456194   -4.004705   -0.461850
C      0.035265   -5.165826    0.180397
Si     0.580398   -6.950826    0.208815
C     -0.859991   -7.280705    1.454105
C     -1.561097   -6.158373    1.724556
C     -1.047709   -5.035241    1.017607
S     -1.598599   -3.437014    1.042812
C     -0.370043   -2.928779   -0.078366
C     -0.100565   -1.675012   -0.622715
Si    -0.947562   -0.076901   -0.358665
C     -0.515966    3.217637   -1.562857
H     -1.729651    3.415587    0.999668
H     -3.265614    2.919491   -0.907826
H     -2.670354    6.116820   -0.582095
H     -0.745649    6.598026   -2.257169
H      1.376653    5.140023   -3.587061
H      1.967543    0.019770   -2.727872
H      2.554445   -2.584267   -2.520722
H      0.331545   -7.717062   -1.038419
H      1.877093   -7.214476    0.882407
H     -1.021360   -8.273000    1.843591
H     -2.410251   -6.106386    2.394197
H     -0.805833    0.458160    1.020001
H     -2.336648   -0.038532   -0.884090
