48

C     -4.191081   -1.257278   -0.522955
C     -3.696292   -2.579804   -0.038591
C     -2.372330   -2.509695    0.162980
C     -1.472630   -3.527011    0.633188
C     -1.829814   -4.857043    1.132257
C     -0.814617   -5.585684    1.622977
Si     0.779855   -4.634901    1.493740
C     -0.147857   -3.205475    0.674303
C      0.429956   -1.884934    0.278508
C     -0.438876   -0.842339   -0.044486
C      0.095146    0.530514   -0.229315
C     -0.691481    1.792912   -0.455760
C      0.371912    2.872903   -0.481013
C      1.568316    2.285522   -0.311913
C      1.400579    0.861277   -0.155529
C      2.346835   -0.186311    0.049906
C      3.685037   -0.127373    0.027766
C      4.233036   -1.508625    0.160991
C      2.984210   -2.340412    0.251527
C      1.884546   -1.563445    0.234049
C      0.042152    4.287488   -0.670261
C     -1.269459    4.771340   -0.815643
N     -1.692896    6.066560   -0.998721
C     -0.791787    7.085020   -1.059693
C      0.573759    6.769943   -0.931249
N      1.592936    7.643504   -0.967880
S      2.976966    6.754420   -0.770745
N      2.346531    5.230496   -0.631697
C      1.007161    5.332421   -0.731112
C     -1.877824   -1.171840   -0.151607
C     -2.931649   -0.440578   -0.560139
H     -4.634992   -1.341314   -1.519201
H     -4.919240   -0.826965    0.170692
H     -4.324091   -3.442921    0.116729
H     -2.854470   -5.206081    1.112358
H     -0.868217   -6.577854    2.041380
H      1.730725   -5.325613    0.585091
H      1.329186   -4.292610    2.829703
H     -1.205792    1.765526   -1.422061
H     -1.400514    1.966459    0.360849
H      2.536821    2.759639   -0.279678
H      4.283688    0.757982   -0.119841
H      4.843017   -1.611949    1.063006
H      4.823511   -1.784486   -0.717688
H      3.045342   -3.412451    0.288168
H     -2.108716    4.075803   -0.787778
H     -1.168732    8.088620   -1.204433
H     -2.942692    0.579032   -0.898511
