47

C     -3.959412    1.659861    0.862432
C     -3.155764    2.135548   -0.304733
C     -1.976564    1.492428   -0.342821
C     -0.895530    1.650954   -1.305502
C      0.203351    0.883842   -1.128909
C      0.324805   -0.059874   -0.006146
C      1.459083   -0.846479    0.195994
C      2.606243   -0.882127   -0.561314
N      3.450318   -1.802167    0.015531
C      2.856234   -2.352292    1.130133
C      1.615816   -1.774482    1.266940
C      0.638691   -2.019638    2.267725
C      0.720320   -2.915638    3.349865
C      1.806457   -3.853837    3.776145
C      1.192664   -4.480450    5.006176
C     -0.034069   -4.004293    5.266970
C     -0.340023   -3.027339    4.240791
C     -1.449972   -2.253373    4.040646
N     -1.557867   -1.380972    3.007514
C     -0.553601   -1.227094    2.101821
C     -0.684906   -0.288301    1.000007
C     -1.899412    0.557116    0.788629
C     -3.045903    0.651861    1.486072
C     -0.949743    2.560178   -2.462173
N     -2.022454    2.499292   -3.319154
C     -2.118573    3.329311   -4.402840
C     -1.215732    4.311491   -4.793330
C     -0.101090    4.418647   -3.941101
N      0.909388    5.289186   -4.095422
S      1.954728    5.025942   -2.834204
N      1.184500    3.787679   -2.047238
C      0.055914    3.527053   -2.734939
H     -4.174513    2.479195    1.554468
H     -4.895284    1.196922    0.536383
H     -3.499182    2.880092   -1.006398
H      1.034563    0.938667   -1.823027
H      2.914534   -0.348517   -1.449750
H      4.372656   -2.038611   -0.327733
H      3.391060   -3.096134    1.701138
H      1.999933   -4.618182    3.018239
H      2.721946   -3.317509    4.041299
H      1.698966   -5.228548    5.599860
H     -0.688580   -4.278753    6.078072
H     -2.307929   -2.297259    4.702470
H     -3.309279    0.100055    2.374058
H     -3.019185    3.165809   -4.994986
H     -1.355568    4.935030   -5.664335
