39

C      4.034662    1.190757   -3.005381
C      4.329477    2.199639   -4.087737
C      3.253020    2.927508   -4.422334
C      2.145574    2.475431   -3.599682
C      0.840235    2.912130   -3.572218
C     -0.042752    2.300677   -2.672400
C      0.355278    1.250050   -1.789149
C      1.703945    0.831118   -1.849168
C      2.106432   -0.191413   -0.995671
N      1.301442   -0.814914   -0.111726
C      0.021951   -0.427185   -0.042627
C     -0.793239   -1.079854    0.873722
C     -2.150642   -0.771527    1.032620
C     -2.689728    0.241455    0.241071
C     -1.888529    0.914061   -0.685592
C     -0.518136    0.598349   -0.853549
C     -2.967559   -1.497392    2.015425
S     -4.506761   -2.134863    1.546984
C     -4.806698   -2.807807    3.094181
C     -3.766575   -2.566130    3.952021
N     -3.758865   -2.998459    5.243711
C     -2.608891   -2.622144    5.867972
C     -1.571795   -1.890924    5.276320
N     -1.559213   -1.448074    3.989820
C     -2.700444   -1.812817    3.333909
C      2.576846    1.449962   -2.752577
H      4.636633    1.391462   -2.114440
H      4.202438    0.172777   -3.368692
H      5.306821    2.312375   -4.535621
H      3.193531    3.709613   -5.161677
H      0.498629    3.707252   -4.226576
H     -1.067436    2.663510   -2.670263
H      3.129087   -0.558872   -0.992988
H     -0.344069   -1.861754    1.484731
H     -3.733872    0.530465    0.338898
H     -2.359672    1.695348   -1.274877
H     -5.721030   -3.345555    3.298238
H     -2.531064   -2.934331    6.905757
H     -0.687807   -1.634360    5.853722
