39

C     -5.123919   -2.829563   -2.966874
C     -3.890192   -2.289925   -2.306867
C     -2.650121   -2.902112   -2.511667
C     -1.505409   -2.417783   -1.870223
C     -1.571822   -1.317084   -1.001979
C     -0.365821   -0.807400   -0.328152
C      0.007917    0.542559   -0.451735
C      1.151126    0.986107    0.196896
C      1.741503    2.381505    0.201103
C      0.439313   -1.668247    0.456916
C      1.592390   -1.212893    1.110450
C      1.942760    0.117529    0.975289
C      3.056912    0.864851    1.519076
C      4.103194    0.467430    2.332248
C      5.056042    1.422142    2.706862
C      2.962869    2.202286    1.079854
C      3.901251    3.154620    1.444956
C      4.957149    2.764031    2.280200
C      6.014491    3.755126    2.672542
C     -2.824445   -0.719366   -0.793115
C     -3.971044   -1.202350   -1.432174
H     -5.585111   -3.592005   -2.331651
H     -4.884289   -3.275221   -3.938057
H     -5.851524   -2.031230   -3.147128
H     -2.563020   -3.759531   -3.175138
H     -0.551007   -2.904160   -2.061926
H     -0.579527    1.229137   -1.054516
H      2.032764    2.681380   -0.809734
H      1.044039    3.095351    0.648872
H      0.155476   -2.713323    0.571414
H      2.187169   -1.895325    1.707645
H      4.193460   -0.557905    2.673765
H      5.886199    1.115336    3.340307
H      3.816027    4.177202    1.090600
H      6.416887    3.523672    3.664328
H      5.602767    4.768842    2.718001
H      6.831583    3.737410    1.944869
H     -2.918873    0.125050   -0.113244
H     -4.927579   -0.722182   -1.238745
