44

C     -3.853672    1.662340   -0.872548
C     -3.043826    2.851466   -0.473761
C     -1.782941    2.472992   -0.210153
C     -0.633492    3.289890    0.136171
C      0.544022    2.630978    0.238755
C      0.732145    1.164463    0.054333
C     -0.364257    0.354566   -0.180372
C     -0.102573   -1.062846   -0.199313
N     -1.087135   -2.038403   -0.202806
C     -0.460957   -3.236470   -0.215241
C     -0.898275   -4.563667   -0.213628
C      0.240697   -5.299356   -0.165626
C      1.518118   -4.418716   -0.130197
C      0.894223   -3.080542   -0.167085
C      1.132574   -1.712531   -0.121938
C      2.299904   -0.926560    0.022862
C      3.572909   -1.357299    0.089353
Si     4.737836    0.069725    0.310905
C      3.259959    1.220797    0.290390
C      2.096831    0.545996    0.140209
C     -1.655761    1.023845   -0.387826
C     -2.846255    0.551811   -0.801462
C     -0.658549    4.706812    0.377830
C      0.325751    5.677160    0.186103
C     -0.199686    6.930584    0.579699
C     -1.481598    6.682163    0.992080
O     -1.769173    5.365372    0.873178
H     -4.680413    1.491254   -0.177128
H     -4.243128    1.773828   -1.888738
H     -3.425737    3.860684   -0.444231
H      1.435340    3.179706    0.521093
H     -2.082113   -1.891116   -0.144250
H     -1.915433   -4.922255   -0.241901
H      0.278999   -6.378587   -0.149996
H      2.142695   -4.610720   -1.006614
H      2.079017   -4.591550    0.792120
H      3.917622   -2.376572    0.032929
H      5.419930    0.058861    1.627384
H      5.624397    0.278284   -0.859183
H      3.416297    2.281763    0.380334
H     -3.096430   -0.451660   -1.095479
H      1.315980    5.494766   -0.208111
H      0.293807    7.891659    0.560276
H     -2.279747    7.301658    1.376183
