47

C      2.928612    4.676934   -5.015480
C      3.723501    4.202411   -6.082152
C      3.917402    2.815230   -5.870110
C      4.510191    1.737019   -6.422167
S      4.172614    0.369595   -5.397454
C      3.258673    1.309024   -4.266460
C      2.645262    0.742150   -3.090868
C      1.553444   -0.156811   -3.140434
C      0.921414   -0.703583   -1.980454
C      1.316469   -0.401129   -0.656825
C      0.671680   -0.963069    0.506817
S     -0.487221   -0.046821    1.411799
C     -0.795443   -1.327840    2.559910
C     -1.705594   -1.193153    3.660383
S     -2.116152    0.334202    4.402520
C     -3.195626   -0.377641    5.561778
C     -3.200563   -1.708454    5.346476
C     -3.797531   -2.872218    5.851995
C     -3.282552   -3.910000    5.066537
O     -2.391674   -3.496498    4.093531
C     -2.395927   -2.150217    4.322878
C     -0.027767   -2.385334    2.195279
N      0.065195   -3.614012    2.789771
C      1.009221   -4.248132    1.986471
C      1.452299   -3.408202    0.945279
C      0.765367   -2.177235    1.086273
C      2.412266    0.478607   -0.598196
C      3.011189    0.905009    0.565323
S      4.327581    1.962576    0.254183
C      4.117239    1.843903   -1.446233
C      3.055391    1.031912   -1.775436
C      3.228393    2.587992   -4.699646
N      2.600983    3.656170   -4.124066
H      2.562673    5.677432   -4.821575
H      4.096542    4.805701   -6.899246
H      5.096971    1.637720   -7.323686
H      1.161266   -0.450892   -4.115475
H      0.085410   -1.388141   -2.132971
H     -3.725979    0.224780    6.285415
H     -4.504817   -2.977638    6.662459
H     -3.455599   -4.978947    5.077281
H     -0.463228   -3.951329    3.587955
H      1.294496   -5.265937    2.219846
H      2.184227   -3.673821    0.193770
H      2.761751    0.659107    1.588647
H      4.795511    2.377270   -2.098789
H      2.050515    3.667866   -3.273306
