45

Si    -1.598741    6.805266    1.583549
C     -0.015091    6.511765    2.523714
C      0.429717    5.254031    2.339172
C      1.590539    4.705754    3.028142
C      1.923103    3.412003    2.865308
C      1.143281    2.622649    1.966301
O      1.370440    1.293472    1.712405
C      0.484272    0.888261    0.751388
C     -0.293288    1.979930    0.398111
C     -1.204081    1.747874   -0.672560
C     -2.029170    2.564433   -1.380194
O     -2.672858    1.806407   -2.325866
C     -2.209561    0.522562   -2.210436
C     -1.272894    0.441459   -1.206080
C     -0.536842   -0.706575   -0.835137
C     -0.621178   -2.010489   -1.378206
C      0.212747   -3.038204   -0.905220
C      1.134182   -2.737975    0.116703
C      1.231168   -1.452899    0.664746
C      0.396694   -0.425857    0.198336
C      0.127151   -4.396055   -1.467312
C     -1.091540   -5.094659   -1.488615
C     -1.173796   -6.383454   -2.022726
C     -0.037458   -6.995088   -2.545963
C      1.180403   -6.319926   -2.534837
C      1.261351   -5.031640   -1.999309
C      0.046300    3.067435    1.206567
C     -0.399666    4.414124    1.417788
C     -1.513462    5.032051    0.984328
H     -2.756028    7.040307    2.479246
H     -1.432433    7.778420    0.477942
H      0.413317    7.272095    3.157347
H      2.159628    5.344917    3.694595
H      2.766217    2.963036    3.376069
H     -2.273045    3.612873   -1.404780
H     -2.629231   -0.178968   -2.917537
H     -1.327136   -2.218366   -2.178493
H      1.784523   -3.519819    0.506342
H      1.953420   -1.262913    1.455732
H     -1.989041   -4.639767   -1.074138
H     -2.125147   -6.908980   -2.026389
H     -0.100776   -7.997263   -2.961622
H      2.068827   -6.793184   -2.944709
H      2.220478   -4.517547   -2.010138
H     -2.321485    4.634015    0.403184
