37

C      2.270433   -6.892990    0.204732
C      0.845178   -6.377624    0.248906
O      0.877828   -4.958131    0.056291
C     -0.343710   -4.367897    0.075020
O     -1.410038   -4.939906    0.235174
C     -0.217795   -2.898845   -0.129350
C     -1.383659   -2.125308   -0.125495
C     -1.319650   -0.738687   -0.313975
C     -0.090693   -0.104810   -0.504168
N      0.056875    1.282254   -0.712015
C     -0.916217    2.263674   -0.577123
O     -2.047371    2.076170   -0.151042
N     -0.415803    3.489145   -0.996557
C     -1.047557    4.747386   -0.911890
C     -0.426804    5.820644   -1.569290
C     -0.984669    7.100956   -1.524113
C     -2.160899    7.309732   -0.817161
F     -2.695648    8.536603   -0.772197
C     -2.785918    6.262864   -0.153857
C     -2.227645    4.981199   -0.198896
C      1.075023   -0.881980   -0.516277
C      1.015461   -2.268204   -0.327819
H      2.876382   -6.417798    0.983279
H      2.738374   -6.650459   -0.755126
H      2.298147   -7.976812    0.347587
H      0.398114   -6.608782    1.222278
H      0.257534   -6.845809   -0.548732
H     -2.354898   -2.594890    0.022999
H     -2.254329   -0.185230   -0.313373
H      1.002625    1.615310   -0.817116
H      0.419211    3.451645   -1.560271
H      0.494401    5.676618   -2.127474
H     -0.510415    7.933162   -2.034142
H     -3.703114    6.444226    0.397537
H     -2.736517    4.187758    0.340290
H      2.048879   -0.423262   -0.668160
H      1.939940   -2.840329   -0.339046
