38

Si    -1.618766    2.451576   -0.759741
C     -0.108052    1.381502   -0.809626
C     -0.232003    0.326562    0.115346
N      0.724399   -0.603202    0.287110
C      1.841607   -0.496630   -0.473365
C      2.096724    0.490974   -1.423290
C      3.342788    0.470742   -2.159405
C      3.721216    1.407518   -3.142840
C      2.727045    2.354607   -3.305758
C      2.787525    3.402361   -4.186647
N      1.614817    4.105558   -4.045209
C      0.815802    3.513361   -3.085487
C      1.482815    2.412235   -2.600880
C      1.069840    1.477399   -1.598152
C     -1.490459    0.289743    0.904873
C     -2.360254    1.364146    0.564250
C     -3.596780    1.532945    1.174811
C     -3.989759    0.620406    2.147429
C     -3.165884   -0.456465    2.517767
C     -3.613188   -1.348817    3.506914
C     -2.834395   -2.430919    3.908683
C     -1.594354   -2.634669    3.324171
C     -1.134636   -1.756161    2.338683
C     -1.895993   -0.643840    1.902034
H     -2.408540    2.421438   -2.018545
H     -1.353218    3.829843   -0.270756
H      2.569893   -1.281840   -0.280350
H      4.055156   -0.328954   -1.945110
H      4.658640    1.369414   -3.678188
H      3.541411    3.717067   -4.895486
H      1.370576    4.937008   -4.567775
H     -0.141556    3.959030   -2.866554
H     -4.255826    2.355563    0.909841
H     -4.959258    0.755642    2.623812
H     -4.583627   -1.206355    3.978033
H     -3.196479   -3.110459    4.674883
H     -0.976161   -3.475049    3.628130
H     -0.156761   -1.961490    1.913738
