38

O      4.001396   -1.101509    4.098637
C      3.155383   -1.345364    3.233130
N      2.881876   -2.670334    2.838744
C      3.645948   -3.709366    3.501475
C      1.999303   -3.051887    1.823038
C      1.303730   -1.950557    1.247326
N      0.339272   -1.874786    0.273462
C     -0.270108   -3.004293   -0.390629
C      0.070548   -0.527776    0.066604
C     -0.837315   -0.102741   -0.941019
C     -1.154157    1.197891   -1.050961
C     -2.061543    1.732668   -2.074262
C     -1.739728    2.945184   -2.696940
C     -2.589161    3.497868   -3.658457
C     -3.774504    2.848976   -3.997649
C     -4.113801    1.650838   -3.372363
C     -3.263898    1.097171   -2.411293
N      0.774382    0.212203    0.911193
C      1.528550   -0.663152    1.622742
N      2.435682   -0.333109    2.600356
C      2.655028    1.058848    2.948975
O      1.844106   -4.211114    1.449944
H      4.689491   -3.632786    3.179195
H      3.605475   -3.560954    4.585516
H      3.274384   -4.711099    3.271139
H      0.284743   -3.199471   -1.311191
H     -1.317323   -2.782879   -0.608533
H     -0.249521   -3.877915    0.262836
H     -1.251883   -0.818251   -1.641904
H     -0.713880    1.932628   -0.378207
H     -0.818861    3.466139   -2.443307
H     -2.325176    4.435969   -4.139742
H     -4.436616    3.280539   -4.743780
H     -5.044314    1.150186   -3.626964
H     -3.559836    0.173849   -1.920156
H      3.044071    1.587846    2.073196
H      1.704338    1.506447    3.255797
H      3.370528    1.166146    3.768413
