37

C      3.644707   -3.800413    5.428188
N      2.575710   -4.546432    5.258517
C      1.866255   -4.076289    4.169457
C      2.411618   -2.986350    3.516639
S      3.860976   -2.518518    4.310231
C      1.939132   -2.261005    2.352065
C      1.508977   -0.925805    2.411394
C      1.025481   -0.242919    1.261750
S      0.473887    1.372904    1.209559
C      0.107480    1.331845   -0.482813
C      0.407471    0.065048   -1.026944
C      0.150588   -0.108671   -2.411226
C     -0.371073    0.914902   -3.210276
C     -0.665543    2.161024   -2.681125
C     -1.192773    3.163221   -3.537744
C     -1.528122    4.458270   -3.114659
C     -1.312534    4.737679   -1.749282
N     -1.570522    5.914066   -1.158180
S     -1.152364    5.739266    0.434665
N     -0.628561    4.171088    0.442512
C     -0.751390    3.690603   -0.808590
C     -0.424466    2.381408   -1.290581
C      0.927935   -0.797791   -0.002608
C      1.370451   -2.183030   -0.116067
C      1.393432   -2.964090   -1.236441
S      2.018162   -4.524128   -0.865552
C      2.246817   -4.111660    0.786853
C      1.845770   -2.820858    1.071722
H      4.352799   -3.979164    6.226866
H      0.944827   -4.573126    3.888767
H      1.535556   -0.396283    3.363394
H      0.349485   -1.050424   -2.906681
H     -0.540542    0.703994   -4.265554
H     -1.354006    2.930980   -4.592490
H     -1.929035    5.203265   -3.791231
H      1.106606   -2.772603   -2.254321
H      2.671191   -4.856797    1.446268
