34

O      1.634912   -3.944908    2.944370
C      1.474156   -2.751043    3.093122
N      2.004158   -1.943354    4.051729
C      1.615627   -0.646686    3.909412
O      1.920181    0.306848    4.595785
C      0.739042   -0.604919    2.739871
C      0.073746    0.455674    2.156176
C     -0.707733    0.189705    1.017300
C     -1.455901    1.267231    0.366939
C     -2.753377    1.571864    0.827158
C     -3.503847    2.578323    0.243345
C     -2.980992    3.309131   -0.817412
C     -1.684044    3.015553   -1.287152
S     -0.892587    3.818631   -2.583369
C      0.496896    2.867188   -2.425530
N      1.545128    3.068956   -3.252604
C      2.593357    2.256785   -3.030883
C      2.649183    1.281010   -2.056527
C      1.543567    1.106689   -1.226516
C      0.402763    1.928511   -1.403311
C     -0.889722    2.005979   -0.722989
C     -0.794216   -1.139128    0.520629
C     -0.107977   -2.196372    1.130378
C      0.651632   -1.893245    2.240829
H      2.618925   -2.267268    4.781114
H      0.158065    1.457054    2.569460
H     -3.180163    1.008960    1.656166
H     -4.502635    2.798846    0.612434
H     -3.568158    4.099840   -1.278392
H      3.439508    2.418431   -3.694825
H      3.534737    0.665463   -1.940867
H      1.579491    0.343339   -0.458197
H     -1.407839   -1.344344   -0.357153
H     -0.171718   -3.210934    0.750327
