38

C     -2.252070   -0.535005   -1.697021
C     -2.472189   -0.485860   -0.194536
N     -1.264158   -0.205873    0.559928
C     -0.518326   -1.096231    1.306343
C     -0.798616   -2.555649    1.450410
S     -0.399133   -3.572515    0.005972
C      1.004783   -2.797007   -0.643937
N      1.019851   -2.191812   -1.810368
C      2.293340   -1.707059   -1.949314
C      3.065755   -2.044261   -0.863301
N      2.231593   -2.753284   -0.036641
C      2.625822   -3.334500    1.221745
N      0.485407   -0.478179    1.904103
C      0.399181    0.835415    1.528256
C      1.228492    1.910721    1.876591
C      0.924898    3.183055    1.370138
C      1.758484    4.364670    1.696618
O      1.563514    5.502683    1.310850
O      2.800283    4.068869    2.493509
C     -0.186528    3.371417    0.536576
C     -1.021466    2.304729    0.182662
C     -0.694943    1.043968    0.696465
H     -1.835659    0.403678   -2.075384
H     -1.564985   -1.337969   -1.974019
H     -3.202035   -0.714170   -2.210351
H     -3.197760    0.296811    0.055705
H     -2.897790   -1.430159    0.155751
H     -0.220681   -2.944015    2.296592
H     -1.850303   -2.716398    1.708832
H      2.588315   -1.143067   -2.824410
H      4.098965   -1.843167   -0.618432
H      2.222751   -4.347238    1.295552
H      3.717208   -3.382577    1.271204
H      2.250700   -2.705256    2.031122
H      2.079450    1.738664    2.525412
H      3.251490    4.929497    2.619748
H     -0.410367    4.365107    0.149487
H     -1.875698    2.459197   -0.467846
