32

C     -1.994859   -1.271729   -3.351796
C     -3.122140   -0.862679   -2.416184
C     -2.792597   -1.073588   -0.937744
C     -1.677868   -0.161782   -0.431190
C     -1.443254   -0.369340    1.053683
O     -2.344382   -0.193347    1.875634
C     -0.072647   -0.743854    1.502771
C      0.554014   -0.060705    2.487671
C      0.007636    1.146281    3.202905
C      1.884040   -0.472304    2.921658
C      2.513625   -1.506964    2.345186
C      3.877334   -1.979009    2.744217
N      1.886327   -2.188672    1.332053
C      0.629077   -1.896978    0.861525
O      0.122544   -2.557483   -0.039846
H     -2.324160   -1.192852   -4.392895
H     -1.119459   -0.626888   -3.232625
H     -1.689797   -2.307223   -3.170683
H     -3.383844    0.186599   -2.595301
H     -4.010126   -1.457294   -2.661959
H     -2.526954   -2.123263   -0.763087
H     -3.703084   -0.889830   -0.353327
H     -0.749397   -0.322677   -0.986166
H     -1.947416    0.891565   -0.573274
H     -0.314039    0.874778    4.213874
H     -0.837646    1.608220    2.686162
H      0.773950    1.926095    3.284752
H      2.354763    0.080218    3.731005
H      4.566406   -1.916844    1.895443
H      4.295052   -1.377918    3.558719
H      3.837460   -3.019553    3.083018
H      2.342272   -2.978671    0.890848
