40

C      2.931131   -4.001334   -1.064197
C      3.446598   -3.239089   -0.019961
C      2.761192   -2.103525    0.423130
C      1.543336   -1.701926   -0.161706
C      0.820241   -0.501314    0.310588
N     -0.301786   -0.149130   -0.341119
C     -0.956461    0.944023    0.082712
N     -2.137000    1.333654   -0.582088
C     -2.532254    0.554509   -1.750796
C     -2.050339    1.203139   -3.020348
C     -2.824483    2.154460   -3.692689
C     -2.338906    2.738233   -4.859212
C     -1.087611    2.358376   -5.313718
N     -0.311120    1.445385   -4.693766
C     -0.806311    0.889547   -3.563080
C     -0.521182    1.684614    1.197558
C     -1.184183    2.816642    1.739501
C     -0.667437    3.490288    2.844343
C      0.509752    3.040792    3.424768
C      1.156504    1.921148    2.897362
C      0.659827    1.232602    1.796453
N      1.329363    0.164230    1.359819
C      1.044763   -2.497989   -1.214039
C      1.729679   -3.631315   -1.662445
H      3.462995   -4.884276   -1.409694
H      4.378838   -3.528418    0.455569
H      3.189881   -1.524950    1.241241
H     -2.071511    2.323331   -0.804262
H     -2.240176   -0.502694   -1.706910
H     -3.629709    0.533235   -1.771654
H     -3.805944    2.433985   -3.317244
H     -2.924007    3.471918   -5.401849
H     -0.665043    2.787014   -6.218166
H     -0.152407    0.158565   -3.091614
H     -2.117902    3.166743    1.304997
H     -1.184152    4.354605    3.251207
H      0.927216    3.551344    4.289659
H      2.075436    1.570370    3.364502
H      0.103962   -2.236015   -1.698477
H      1.320102   -4.224082   -2.476722
