48

C     -0.676281   -0.015938   -6.861450
C      0.002213   -1.274242   -7.300683
C      0.452130   -1.926971   -6.220788
C      1.020239   -3.242731   -6.175639
C      1.227965   -3.807866   -4.976203
C      0.963042   -3.077482   -3.708437
C      1.143647   -3.776964   -2.519406
C      0.977869   -3.137132   -1.293590
C      0.720931   -1.760109   -1.179726
C      0.636619   -1.214131    0.139631
N      0.712574   -2.017575    1.225627
C      0.620945   -1.492193    2.476455
C      0.453964   -0.146283    2.761923
C      0.390472    0.699656    1.660190
C      0.477983    0.169945    0.351749
C      0.450891    1.003524   -0.801077
N      0.367777    2.347283   -0.788350
S      0.465740    2.848130   -2.357142
N      0.585942    1.391102   -3.115946
C      0.522548    0.419960   -2.188525
C      0.582589   -1.011404   -2.409085
C      0.581734   -1.703095   -3.674963
C      0.187194   -1.155505   -5.004182
C     -0.541526   -0.085341   -5.368002
C      0.377882    0.346714    4.127740
C      1.454111    0.269196    5.052403
C      1.401235    0.754601    6.399579
C      0.267062    1.366691    6.971145
C     -0.793211    1.437798    6.068535
C     -2.005764    1.986506    6.405578
S     -3.109348    1.912190    5.091179
C     -1.958775    1.141139    4.070907
C     -0.752659    0.954381    4.707677
H     -1.729142   -0.014996   -7.158752
H     -0.177857    0.870249   -7.264607
H      0.040103   -1.623664   -8.320614
H      1.221383   -3.776255   -7.097242
H      1.624837   -4.815960   -4.912908
H      1.404814   -4.832919   -2.526161
H      1.103912   -3.746521   -0.396726
H      0.684725   -2.229344    3.274417
H      0.283386    1.773844    1.805254
H     -1.007181    0.638206   -4.721171
H      2.393870   -0.177664    4.721633
H      2.294227    0.644978    7.016452
H      0.246589    1.726698    7.991259
H     -2.315833    2.423961    7.344607
H     -2.248118    0.874387    3.063871
