36

Si    -3.961616    1.077640    0.763563
C     -5.553038    0.745808   -0.243611
C     -5.263119    0.424338   -1.522573
C     -3.866876    0.403870   -1.835867
C     -3.231297    0.110058   -3.010262
S     -1.522240    0.222947   -2.818408
C     -1.632257    0.687155   -1.146230
C     -2.951546    0.726923   -0.793589
C     -0.451956    0.953550   -0.372442
C     -0.269134    1.703135    0.774201
C      1.097810    1.629020    1.132959
N      1.722575    2.204516    2.186768
C      3.049905    1.952158    2.268446
C      3.798478    1.168774    1.376276
C      5.203498    0.935594    1.512272
S      6.279203    1.522550    2.738531
C      7.627348    0.743078    2.054120
C      7.294905    0.045814    0.918890
C      5.900493    0.143619    0.588240
C      5.185926   -0.428420   -0.493609
C      3.814376   -0.213625   -0.644934
C      3.130622    0.578031    0.283704
C      1.745470    0.835945    0.191106
N      0.784657    0.447215   -0.712125
H     -3.805326    0.061356    1.833701
H     -3.910889    2.490802    1.214610
H     -6.525675    0.822863    0.214580
H     -6.021800    0.197242   -2.262745
H     -3.657438   -0.167952   -3.963902
H     -1.018264    2.266026    1.310498
H      3.522222    2.427961    3.124749
H      8.601781    0.831459    2.514815
H      8.017592   -0.516423    0.340136
H      5.712940   -1.044883   -1.218714
H      3.302533   -0.669176   -1.487346
H      0.949622   -0.135664   -1.520041
