38

O      2.459807    0.392221    3.832267
C      1.955724   -0.345019    2.991126
C      2.404489   -1.752725    2.848469
C      3.402481   -2.262902    3.685265
C      3.817180   -3.585473    3.536099
C      3.241321   -4.389089    2.551501
C      2.244245   -3.876170    1.715982
C      1.801710   -2.558736    1.869402
N      0.841451   -2.018108    0.998048
C      0.331748   -0.717572    1.145688
C     -0.660502   -0.236783    0.282024
C     -1.145158    1.081961    0.383277
C     -2.193235    1.569733   -0.521797
C     -3.372741    2.135305   -0.052048
N     -4.376837    2.602691   -0.833331
C     -4.250557    2.529628   -2.158252
N     -5.245845    2.994346   -2.915937
C     -5.130839    2.930334   -4.260334
C     -4.035640    2.406806   -4.916130
C     -2.996293    1.919356   -4.139482
C     -3.094539    1.975482   -2.741427
C     -2.068941    1.495664   -1.909467
C     -0.595162    1.920760    1.367797
C      0.413747    1.463856    2.218689
C      0.878476    0.152524    2.099001
H      3.855762   -1.631556    4.446162
H      4.593924   -3.986485    4.182834
H      3.574760   -5.417137    2.429592
H      1.821274   -4.514674    0.945162
H      0.263264   -2.681419    0.497328
H     -1.071714   -0.900393   -0.476062
H     -3.565187    2.228438    1.014856
H     -5.978109    3.328501   -4.812103
H     -3.993868    2.380710   -5.998980
H     -2.116783    1.500830   -4.621433
H     -1.166408    1.077490   -2.350223
H     -0.934612    2.950853    1.468858
H      0.838686    2.130196    2.966477
