43

O     -1.637521    3.528784    2.254347
C     -1.089101    2.661943    1.581767
O     -0.058992    1.898281    2.130346
C      0.649129    0.947219    1.375342
C      0.323468    0.717335    0.044916
C      1.054060   -0.228503   -0.670336
C      2.093850   -0.924320   -0.042683
C      2.423264   -0.689437    1.301503
N      3.493406   -1.420367    1.863958
C      4.694798   -0.578001    2.058374
C      5.393988   -0.287804    0.734658
C      3.115599   -2.196779    3.064948
C      2.148325   -3.322738    2.725454
C      1.684673    0.263098    2.010867
C     -0.767469    1.469376   -0.549337
C     -1.456795    2.371612    0.169617
C     -2.511657    3.084371   -0.482394
N     -2.467041    3.544795   -1.721570
C     -3.656620    4.159570   -2.070455
C     -3.934960    4.781357   -3.304922
C     -5.187551    5.363829   -3.523392
C     -6.161903    5.330107   -2.530870
C     -5.910072    4.716267   -1.299020
C     -4.647174    4.135624   -1.092101
S     -4.047045    3.308728    0.288536
H      0.832327   -0.436685   -1.714336
H      2.662131   -1.660850   -0.606327
H      5.412834   -1.113918    2.692525
H      4.456987    0.356365    2.580848
H      4.779465    0.337189    0.078934
H      6.334182    0.244637    0.913394
H      5.622275   -1.218366    0.200543
H      2.702056   -1.556853    3.852961
H      4.016591   -2.661713    3.483886
H      1.967292   -3.945109    3.607930
H      1.180822   -2.938663    2.386135
H      2.553349   -3.963663    1.934608
H      1.911130    0.485053    3.048417
H     -1.005638    1.276166   -1.593010
H     -3.171561    4.804577   -4.077060
H     -5.398235    5.843236   -4.476487
H     -7.133326    5.787548   -2.711014
H     -6.671828    4.688095   -0.525703
