38

C     -2.809756   -1.947820   -5.122573
C     -1.510861   -2.055797   -5.561999
N     -0.697590   -1.490514   -4.615452
C     -1.455771   -0.991957   -3.578565
C     -2.775032   -1.291632   -3.868505
C     -0.872265   -0.353196   -2.412525
C     -1.049850   -0.872190   -1.117906
C     -0.437791   -0.231812   -0.026316
O     -0.535515   -0.658399    1.269224
C      0.190637    0.208215    2.051951
C      0.745155    1.180466    1.233333
C      1.547105    2.181894    1.862956
N      2.144009    3.165130    1.214025
S      2.925802    4.015802    2.420401
N      2.492819    3.111516    3.755939
C      1.713580    2.101178    3.314348
C      1.120363    1.080593    4.121464
C      1.251923    0.962673    5.517512
C      0.614940   -0.088755    6.170206
C     -0.129028   -0.985250    5.414620
N     -0.279795   -0.907150    4.072600
C      0.343308    0.119441    3.448613
C      0.351246    0.907859   -0.070688
C      0.542030    1.484437   -1.371867
C      1.248206    2.605248   -1.695180
S      1.145051    2.895166   -3.389234
C      0.148862    1.513766   -3.636955
C     -0.087905    0.814771   -2.469962
H     -3.687539   -2.308114   -5.643304
H     -1.094837   -2.493068   -6.459699
H      0.311999   -1.446294   -4.663280
H     -3.626338   -1.052390   -3.243532
H     -1.640712   -1.768626   -0.952790
H      1.842105    1.681238    6.080880
H      0.695544   -0.208663    7.245382
H     -0.641705   -1.819802    5.886308
H      1.813617    3.293777   -1.091588
H     -0.209604    1.310320   -4.636737
