35

Si     1.644373    1.183222   -2.171836
C      0.984947    2.944305   -2.472974
C     -0.133020    3.186992   -1.754547
C     -0.587431    2.094822   -0.938844
C      0.201892    0.907707   -0.985183
C     -0.218545   -0.107301   -0.177056
S     -1.629196    0.406988    0.673490
C     -1.656370    1.972132   -0.078453
C     -2.705189    2.901591    0.252230
N     -3.126051    3.085256    1.488420
C     -4.152285    4.008163    1.506222
C     -4.514423    4.517440    0.279335
S     -3.541711    3.816378   -0.943875
C      0.313083   -1.448883    0.033459
C      0.426884   -2.352538   -1.023766
C      0.952039   -3.627169   -0.798067
C      1.363797   -3.974027    0.488125
N      1.260533   -3.110440    1.530467
C      0.739626   -1.883563    1.283859
C      1.927388   -5.296155    0.826605
N      1.763001   -5.926351    1.977308
C      2.441485   -7.126911    1.973970
C      3.126607   -7.417934    0.817058
S      2.922424   -6.145118   -0.308573
H      1.558405    0.358282   -3.403030
H      2.973049    1.214646   -1.513734
H      1.496417    3.622347   -3.137428
H     -0.639561    4.144753   -1.781576
H     -4.607318    4.274227    2.452643
H     -5.283048    5.241097    0.050365
H      0.091059   -2.082652   -2.022113
H      1.014238   -4.330554   -1.621740
H      0.683501   -1.236840    2.156426
H      2.402318   -7.757365    2.853919
H      3.722466   -8.289647    0.589311
