42

O      3.105470    4.807218   -1.562446
C      2.720799    4.242299   -0.543419
C      3.029903    4.802045    0.796479
C      3.758325    5.990488    0.913333
C      4.046625    6.500572    2.178311
C      3.614146    5.821780    3.318066
C      2.886484    4.633710    3.198240
C      2.570776    4.122075    1.935942
N      1.886032    2.903474    1.805623
C      1.508487    2.373408    0.561265
C      0.786051    1.176375    0.483226
C      0.448986    0.603481   -0.758206
C     -0.318730   -0.649880   -0.826401
C     -1.562818   -0.773276   -0.193166
C     -2.296452   -1.966864   -0.259310
C     -1.812736   -3.087075   -0.956693
C     -2.564720   -4.355759   -1.036395
C     -3.451247   -4.794936   -0.051608
N     -4.146030   -5.960016   -0.126684
C     -3.918250   -6.691022   -1.237524
C     -3.037993   -6.280695   -2.221232
N     -2.347294   -5.119272   -2.142045
C     -0.568242   -2.950125   -1.596184
C      0.165562   -1.758312   -1.532017
C      0.869697    1.255184   -1.930109
C      1.608149    2.438852   -1.868783
C      1.930524    2.988042   -0.626127
H      4.101835    6.512557    0.023168
H      4.614453    7.422855    2.274614
H      3.850184    6.215566    4.303989
H      2.573201    4.113022    4.099037
H      1.383015    2.572051    2.618623
H      0.491493    0.669385    1.399609
H     -1.986929    0.072398    0.345364
H     -3.268366   -1.990247    0.228822
H     -3.628212   -4.226328    0.854573
H     -4.464336   -7.623857   -1.316601
H     -2.861295   -6.877732   -3.108514
H     -0.152569   -3.787283   -2.156505
H      1.128868   -1.710677   -2.036612
H      0.618416    0.843572   -2.906405
H      1.930341    2.927592   -2.785515
