49

C      2.550292    1.317024    4.770706
C      3.968133    1.763963    5.019341
C      4.745346    1.623455    3.937862
C      3.919614    1.073275    2.877621
C      4.296225    0.763464    1.590283
C      3.325563    0.241518    0.738691
C      1.982607    0.024719    1.156106
C      0.997721   -0.538018    0.188110
N      1.476035   -0.807678   -1.060322
C      0.619776   -1.319245   -1.973475
C     -0.719599   -1.588218   -1.726269
C     -1.192974   -1.307886   -0.440866
C     -0.340194   -0.776004    0.537760
C     -0.772892   -0.453367    1.908659
C     -2.026741   -0.628828    2.379031
Si    -2.178823   -0.103584    4.156391
C     -0.366278    0.347954    4.098360
C      0.190827    0.108855    2.891007
C      1.607403    0.351807    2.496518
C      2.602076    0.875663    3.334519
C     -1.597183   -2.144026   -2.763295
C     -1.750650   -3.541440   -2.824506
C     -2.564718   -4.130889   -3.785931
C     -3.240820   -3.332113   -4.703339
C     -3.115437   -1.935518   -4.673319
C     -3.807291   -1.146274   -5.607248
C     -3.698628    0.243296   -5.594549
C     -2.896443    0.863069   -4.646194
C     -2.201934    0.092608   -3.710904
C     -2.289211   -1.320171   -3.698105
H      2.302528    0.486410    5.437794
H      1.867877    2.160758    4.907577
H      4.305486    2.152461    5.969669
H      5.791399    1.865320    3.843688
H      5.311767    0.917156    1.242536
H      3.620084   -0.005052   -0.281064
H      1.058776   -1.512061   -2.949535
H     -2.237524   -1.506922   -0.218725
H     -2.888392   -1.015900    1.861076
H     -3.051038    1.082315    4.329991
H     -2.448525   -1.241220    5.067660
H      0.076529    0.746714    4.990793
H     -1.226818   -4.179308   -2.114115
H     -2.671809   -5.211889   -3.821350
H     -3.872387   -3.811921   -5.448392
H     -4.441802   -1.612365   -6.358358
H     -4.240487    0.838726   -6.324485
H     -2.807278    1.946240   -4.629601
H     -1.585124    0.616251   -2.982780
