41

C      1.665509    2.028570   -4.384306
C      1.654773    1.105160   -3.202038
C      0.593606    1.381223   -2.432431
C      0.139362    0.803235   -1.220226
C      0.591107   -0.215910   -0.402910
Si     1.925705   -1.490016   -0.190583
C      1.008784   -2.034581    1.480372
C     -0.105501   -1.291399    1.694727
C     -0.270349   -0.340990    0.662738
N     -1.260072    0.586959    0.531474
C     -1.025488    1.305950   -0.629102
C     -1.837777    2.410792   -1.172718
C     -2.996094    2.877529   -0.541737
C     -3.725011    3.927813   -1.104117
C     -3.304891    4.517814   -2.295857
C     -2.150986    4.063982   -2.938404
C     -1.406391    3.012546   -2.391040
C     -0.172493    2.485580   -3.024750
C      0.440888    2.869087   -4.158277
C      1.535367   -3.127741    2.289848
C      0.723253   -4.211728    2.633753
C      1.239537   -5.251767    3.404126
C      2.560204   -5.174073    3.812729
N      3.377981   -4.144168    3.510561
C      2.846268   -3.146258    2.763234
H      2.569027    2.645250   -4.394040
H      1.590650    1.469206   -5.321451
H      2.397401    0.345621   -3.022543
H      3.272768   -0.954170    0.138656
H      1.899486   -2.605328   -1.172208
H     -0.775929   -1.400126    2.537356
H     -2.030655    0.729501    1.168123
H     -3.347980    2.439303    0.386022
H     -4.624491    4.287874   -0.610718
H     -3.877574    5.335096   -2.727394
H     -1.845451    4.540528   -3.864898
H      0.127898    3.655993   -4.825826
H     -0.309293   -4.258855    2.296722
H      0.625695   -6.102977    3.675973
H      3.008163   -5.960890    4.412896
H      3.534038   -2.328488    2.563939
