30

O      2.710107   -1.023842   -3.782211
C      1.548348   -0.669092   -3.618775
C      0.678412   -0.382242   -4.786032
C     -0.575422    0.022814   -4.558070
N     -1.115326    0.212957   -3.314707
C     -0.383103   -0.100037   -2.158742
C     -0.939546    0.067412   -0.885854
C     -0.195321   -0.206549    0.278018
C     -0.793361   -0.034985    1.612438
C     -1.329559    1.208288    2.004224
C     -1.907086    1.415762    3.265686
C     -1.924912    0.317097    4.122001
N     -2.384051    0.124160    5.394425
N     -2.179753   -1.134173    5.816470
N     -1.579707   -1.791182    4.831196
C     -1.410917   -0.925767    3.783499
C     -0.836213   -1.113861    2.518641
C      1.133568   -0.644190    0.136786
C      1.710155   -0.796702   -1.126058
C      0.953553   -0.518363   -2.265359
H      1.095376   -0.521384   -5.773453
H     -1.255652    0.233159   -5.378634
H     -2.116985    0.346040   -3.236836
H     -1.969259    0.405582   -0.793453
H     -1.287175    2.051201    1.313905
H     -2.309735    2.381611    3.550579
H     -2.834526    0.780585    6.019577
H     -0.442059   -2.090144    2.254520
H      1.737743   -0.855780    1.017798
H      2.742515   -1.126112   -1.218967
