46

C      2.847578   -7.083527   -4.618803
C      3.710783   -6.184106   -4.010176
C      3.184194   -5.139800   -3.252043
C      1.799468   -5.013592   -3.115941
C      1.180675   -3.923364   -2.322146
C     -0.202045   -3.796044   -2.185443
C     -0.731172   -2.749300   -1.426419
C      0.116634   -1.829749   -0.804542
C     -0.399716   -0.715025    0.000490
C     -1.316735   -0.929555    1.031145
C     -1.792670    0.139232    1.797563
C     -1.377901    1.465036    1.569139
C     -0.478285    1.696359    0.522046
C      0.008444    0.606228   -0.236635
C      0.038434    3.071891    0.189225
C     -1.082492    4.084952   -0.000603
C     -1.559056    4.665795    1.304451
C     -1.647568    6.070319    1.408677
C     -2.093852    6.682700    2.577133
C     -2.464637    5.899705    3.659175
C     -2.393391    4.509094    3.561007
C     -1.952886    3.864811    2.385764
N     -1.922455    2.458406    2.401165
C      1.481795   -2.035022   -0.993150
N      2.026598   -3.040158   -1.724645
N      0.949851   -5.897118   -3.713439
C      1.488252   -6.900010   -4.442782
H      3.224035   -7.906679   -5.215166
H      4.786082   -6.289387   -4.120981
H      3.851565   -4.430221   -2.771267
H     -0.870491   -4.503356   -2.668303
H     -1.810980   -2.654564   -1.338820
H     -1.662788   -1.935011    1.261716
H     -2.504257   -0.080018    2.590736
H      0.713180    0.801754   -1.044823
H      0.752433    3.388519    0.960073
H      0.601431    3.025496   -0.752029
H     -0.690939    4.894102   -0.630824
H     -1.935658    3.657248   -0.542257
H     -1.362954    6.700291    0.568085
H     -2.149725    7.765939    2.639004
H     -2.810277    6.364222    4.578350
H     -2.688664    3.920675    4.426785
H     -2.409371    2.071318    3.201624
H      2.213709   -1.374340   -0.533726
H      0.770305   -7.576258   -4.898092
