43

C     -4.962592    3.490320    4.323691
C     -3.534132    3.669292    3.821284
N     -3.085637    2.560983    2.964809
C     -2.876380    1.303777    3.727270
C     -2.556971    0.098828    2.807445
C     -1.540416    0.480749    1.792763
N     -0.846244   -0.443841    1.041587
C     -0.041582    0.195813    0.219573
N      0.768662   -0.497942   -0.641886
C      1.617191    0.025999   -1.587899
O      1.780297    1.205537   -1.873820
C      2.387193   -0.989875   -2.363014
C      2.699888   -0.711203   -3.701709
C      3.413577   -1.636997   -4.466154
C      3.822507   -2.838655   -3.893312
C      3.551238   -3.100507   -2.545988
C      2.826970   -2.186047   -1.781243
O      3.963477   -4.241808   -1.905828
C      4.971797   -4.927285   -2.658843
C      4.578836   -5.016363   -4.124214
O      4.499244   -3.710301   -4.706587
S     -0.059850    1.901388    0.320895
C     -1.244422    1.799595    1.533248
C     -1.843834    2.962280    2.247170
H     -5.046680    2.668717    5.040660
H     -5.294557    4.401940    4.831827
H     -5.652044    3.300395    3.494332
H     -2.855406    3.813117    4.671218
H     -3.519375    4.600484    3.240339
H     -2.061922    1.439295    4.452177
H     -3.772743    1.039171    4.297844
H     -3.469355   -0.221641    2.290469
H     -2.198687   -0.742243    3.410567
H      0.633454   -1.495603   -0.570952
H      2.382209    0.227123   -4.153613
H      3.642924   -1.422875   -5.506638
H      2.651520   -2.405817   -0.732346
H      5.923831   -4.397698   -2.529327
H      5.078316   -5.930145   -2.233648
H      3.609172   -5.513750   -4.250416
H      5.329061   -5.583832   -4.683685
H     -1.104013    3.359497    2.954708
H     -2.087627    3.752993    1.527534
