44

C     -2.342113   -2.285885   -1.389391
C     -2.182889   -0.830892   -1.893324
C     -1.879081   -0.835622   -3.412159
C     -3.521197   -0.093249   -1.671009
C     -4.713590   -0.536272   -2.281054
C     -5.923777    0.127003   -2.072059
C     -5.968351    1.241256   -1.243746
C     -4.801017    1.692818   -0.630771
C     -3.576421    1.046267   -0.852056
N     -2.429861    1.489434   -0.184194
C     -1.152330    0.949256   -0.369684
C     -0.058912    1.505422    0.313637
C      1.224908    0.959812    0.202522
C      2.348965    1.561885    0.919449
C      2.646763    2.889306    1.178420
C      3.853231    2.946057    1.929380
C      4.630822    3.981159    2.461731
N      5.763017    3.705130    3.156185
C      6.125073    2.413797    3.324340
C      5.425602    1.319305    2.837332
C      4.268783    1.631418    2.126817
N      3.345488    0.817813    1.513571
C      1.402301   -0.165892   -0.604001
C      0.315986   -0.737665   -1.273236
C     -0.979366   -0.195736   -1.161955
H     -3.156627   -2.813571   -1.897963
H     -1.437812   -2.882371   -1.553733
H     -2.558395   -2.308830   -0.313934
H     -1.761195    0.186582   -3.793128
H     -2.676362   -1.311373   -3.993778
H     -0.959397   -1.381308   -3.650201
H     -4.714067   -1.411392   -2.926344
H     -6.830584   -0.232791   -2.551093
H     -6.909526    1.754863   -1.068600
H     -4.852394    2.555856    0.027363
H     -2.470378    2.423988    0.198948
H     -0.218765    2.369024    0.954338
H      2.061374    3.738564    0.850131
H      4.375868    5.028596    2.351004
H      7.041619    2.270721    3.891378
H      5.760903    0.304104    3.001631
H      3.380736   -0.191457    1.518205
H      2.386878   -0.606239   -0.738256
H      0.497560   -1.616363   -1.887657
