33

O     -1.630664   -0.235313    1.246115
C     -1.597582   -0.954684    0.251068
C     -0.331143   -1.635582   -0.271031
N      0.856425   -1.050957    0.322023
N      1.330691   -1.653719    1.451137
N      2.326155   -1.207372    2.060431
C      2.953284   -0.039608    1.610964
C      4.052017    0.456026    2.323190
C      4.709685    1.618866    1.908690
C      4.273377    2.300378    0.773206
C      3.181180    1.818070    0.054877
C      2.536099    0.652629    0.485249
C      1.388678    0.098190   -0.225908
O      0.965584    0.643590   -1.241662
N     -2.729758   -1.273146   -0.477700
C     -3.990135   -0.612307   -0.217209
C     -4.101474    0.551413   -1.129043
C     -3.683465    1.863314   -1.042684
C     -4.070789    2.485688   -2.252960
C     -4.695409    1.515268   -3.000566
O     -4.715588    0.334899   -2.328878
H     -0.286237   -1.525459   -1.360152
H     -0.374664   -2.702440   -0.025989
H      4.396788   -0.069012    3.211257
H      5.560514    1.991841    2.474264
H      4.781609    3.205763    0.449911
H      2.832283    2.344188   -0.830726
H     -2.615558   -1.653836   -1.408020
H     -4.057143   -0.299330    0.829343
H     -4.786712   -1.336732   -0.413810
H     -3.153398    2.304515   -0.208791
H     -3.908557    3.512946   -2.547119
H     -5.152726    1.503714   -3.980050
