33

C      5.761094    1.607521   -2.208304
C      6.481590    0.516463   -2.660401
N      6.086931   -0.768828   -2.575589
C      4.881225   -0.940497   -1.992433
S      4.226739   -2.498685   -1.804491
C      2.829471   -1.881699   -1.057979
N      1.848885   -2.711532   -0.646924
C      0.799369   -2.082514   -0.071504
C      0.658462   -0.708806    0.121107
C     -0.532281   -0.132071    0.761422
C     -0.418214    0.753845    1.838858
C     -1.558318    1.296079    2.439401
C     -2.831242    0.977713    1.990498
N     -3.906321    1.521073    2.594525
C     -5.112999    1.164941    2.103925
C     -5.247555    0.294244    1.042611
N     -4.181327   -0.258944    0.425151
C     -2.968027    0.083597    0.901312
C     -1.825382   -0.449314    0.312986
C      1.713777    0.097696   -0.327875
C      2.842640   -0.496418   -0.940450
C      4.052115    0.060274   -1.493524
C      4.521750    1.387788   -1.611736
H      6.155692    2.612102   -2.317925
H      7.452421    0.659082   -3.130361
H      0.020229   -2.766256    0.264179
H      0.559521    1.023506    2.234666
H     -1.451707    1.979496    3.278578
H     -5.975061    1.603558    2.592958
H     -6.220635    0.014475    0.655813
H     -1.960998   -1.123859   -0.531219
H      1.667058    1.178343   -0.222025
H      3.932152    2.223685   -1.247470
