46

Si    -2.249115   -5.337944   -4.855307
C     -3.078437   -3.966591   -3.809055
C     -2.160799   -3.226352   -3.148722
C     -0.797946   -3.617613   -3.364932
C     -0.582317   -4.716849   -4.239178
C      0.722057   -5.054561   -4.427278
S      1.726782   -3.993656   -3.507898
C      0.379612   -3.109516   -2.869856
C      0.624461   -2.011507   -1.953305
C      1.210925   -0.785613   -2.340907
C      1.434299    0.305871   -1.443652
C      1.093152    0.292163   -0.065651
C      1.322090    1.419284    0.825182
C      0.269448    2.172039    1.350231
C      0.531088    3.252832    2.195184
C      1.850402    3.570121    2.503440
N      2.890196    2.862047    1.999405
C      2.606099    1.817466    1.184055
C      2.217986    4.678374    3.375209
S      3.769709    5.467756    3.326606
C      3.372447    6.586758    4.597256
C      2.112536    6.317429    4.995676
C      1.161186    6.763778    5.924727
C      0.048157    5.938517    5.723682
O      0.214651    4.992636    4.728931
C      1.487602    5.286082    4.335165
C      0.516473   -0.935007    0.319847
C      0.124418   -1.236120    1.604783
S     -0.525311   -2.821090    1.720931
C     -0.264989   -3.129066    0.052767
C      0.290020   -2.044466   -0.587918
H     -2.480828   -5.114264   -6.303944
H     -2.616292   -6.684553   -4.351323
H     -4.150325   -3.852554   -3.795222
H     -2.424122   -2.396348   -2.502515
H      1.156763   -5.837681   -5.033491
H      1.506258   -0.653797   -3.382898
H      1.888018    1.207997   -1.859208
H     -0.760976    1.927144    1.101892
H     -0.297391    3.832425    2.588147
H      3.480864    1.285290    0.817012
H      4.081371    7.326967    4.939229
H      1.240363    7.560500    6.650188
H     -0.920847    5.901540    6.204514
H      0.180829   -0.625593    2.495745
H     -0.532994   -4.094991   -0.353584
