46

C      0.163245    3.469567   -5.333969
C      0.561092    4.740741   -6.025512
C      0.717864    5.715639   -5.121259
C      0.448245    5.195877   -3.805296
C      0.121567    3.892239   -3.882635
C     -0.225696    2.976359   -2.788691
C     -0.270785    3.388230   -1.453341
C     -0.604107    2.482684   -0.443540
C     -0.888112    1.164928   -0.785413
N     -0.858818    0.729766   -2.064945
C     -0.532067    1.635482   -3.021458
C     -1.247654    0.164691    0.228924
C     -2.573064    0.145209    0.692847
C     -2.975691   -0.761484    1.665860
C     -2.061724   -1.674068    2.207375
C     -2.561132   -2.615820    3.209271
S     -2.780452   -2.123419    4.848648
C     -3.343701   -3.678169    5.344241
C     -3.363857   -4.537728    4.283003
S     -3.846197   -6.268028    4.166019
C     -3.428466   -6.110721    2.462765
C     -2.969355   -4.854135    2.050140
C     -2.926422   -3.917314    3.114581
C     -0.710996   -1.687084    1.760739
C      0.256685   -2.584604    2.278171
C      1.576833   -2.592267    1.828711
C      1.970029   -1.701036    0.845529
C      1.043254   -0.801258    0.319667
C     -0.303548   -0.763020    0.757004
H      0.911470    2.689512   -5.507874
H     -0.817327    3.133338   -5.686071
H      0.698324    4.842013   -7.091637
H      1.001949    6.737160   -5.324709
H      0.513719    5.806675   -2.917995
H     -0.049653    4.413632   -1.171727
H     -0.634421    2.804349    0.592762
H     -0.526409    1.214922   -4.023417
H     -3.303544    0.839649    0.281129
H     -4.012341   -0.758430    1.996871
H     -3.629899   -3.891531    6.364773
H     -3.551255   -6.989161    1.843708
H     -2.682584   -4.643845    1.026198
H     -0.010523   -3.300072    3.053549
H      2.290294   -3.296776    2.247409
H      2.993795   -1.701691    0.481525
H      1.388659   -0.123538   -0.459727
