27

N      2.203785    3.786336   -0.682601
C      2.796449    2.788166   -0.669657
C      3.573602    1.580051   -0.666720
C      4.972655    1.716652   -0.735758
C      5.798620    0.594131   -0.777883
C      5.235870   -0.676183   -0.757760
C      3.848570   -0.821622   -0.688028
C      2.993229    0.297506   -0.630941
C      1.553555    0.041863   -0.549521
N      0.893385   -1.052792   -0.891920
C     -0.408829   -0.766435   -0.574362
C     -1.584115   -1.509772   -0.707515
C     -2.765244   -0.920030   -0.277648
O     -4.025029   -1.441293   -0.304300
C     -4.791416   -0.448069    0.232184
N     -4.143790    0.639597    0.593167
C     -2.842242    0.353954    0.271863
C     -1.665987    1.096146    0.404613
C     -0.485971    0.505028   -0.025228
O      0.772618    1.022881    0.004808
H      5.426724    2.706934   -0.764596
H      6.878476    0.712110   -0.833128
H      5.872826   -1.557099   -0.796819
H      3.428072   -1.827788   -0.673811
H     -1.572593   -2.507256   -1.130270
H     -5.851196   -0.647717    0.309621
H     -1.676530    2.094878    0.825584
