42

O      0.973453    0.831663   -1.489159
C      0.364607   -0.228821   -1.357783
N     -0.631038   -0.629279   -2.230138
C     -0.975634    0.158440   -3.402156
C     -2.459103    0.048553   -3.763755
C     -3.362204    0.612896   -2.694783
C     -3.640828    1.986372   -2.639378
C     -4.451088    2.501668   -1.622947
C     -4.996856    1.651778   -0.658692
C     -4.719707    0.284361   -0.699289
C     -3.902535   -0.221229   -1.707163
F     -3.623914   -1.534118   -1.716312
C      0.609300   -1.204535   -0.187317
C     -0.537351   -1.153805    0.824438
S     -0.072113    0.124748    2.049083
C      1.655733    0.216107    1.502893
C      2.669321   -0.108450    2.549515
C      3.028113    0.583748    3.695296
C      4.043131    0.050341    4.498031
C      4.684948   -1.154823    4.151758
C      4.325442   -1.844789    2.992694
C      3.322651   -1.296454    2.214230
C      2.717196   -1.814816    0.980669
O      2.932279   -2.910889    0.500442
N      1.812300   -0.861336    0.551563
H     -0.977053   -1.583005   -2.181215
H     -0.693023    1.206723   -3.242830
H     -0.366321   -0.227178   -4.229005
H     -2.642615    0.583346   -4.704376
H     -2.724767   -0.998163   -3.957904
H     -3.222430    2.665363   -3.380399
H     -4.657909    3.570694   -1.585061
H     -5.632414    2.056453    0.125160
H     -5.136689   -0.389228    0.045852
H      0.704273   -2.211369   -0.612267
H     -0.613017   -2.103563    1.363618
H     -1.510303   -0.924982    0.382906
H      1.868210    1.170069    1.009604
H      2.535923    1.512584    3.968214
H      4.342707    0.574876    5.402310
H      5.465053   -1.552399    4.794282
H      4.802610   -2.778479    2.711348
