40

C      4.242518    4.278621    0.864550
C      3.247506    3.314885    0.661743
C      2.887322    2.643882    1.860471
C      2.003894    1.661060    2.164611
S      2.145704    1.335525    3.854569
C      3.366720    2.530404    4.088072
C      3.658101    3.149028    2.906510
S      4.832763    4.454902    2.512652
C      1.056862    0.923315    1.353725
C      1.126982   -0.468661    1.140103
C      0.169070   -1.101044    0.316840
O      0.147768   -2.445098    0.041227
C     -0.918462   -2.655742   -0.781427
C     -1.392278   -4.003574   -1.387700
S     -0.717650   -5.539314   -1.183755
C     -1.921245   -6.248558   -2.205693
C     -2.823932   -5.318233   -2.693952
C     -2.489326   -4.047335   -2.204724
C     -3.126908   -2.798282   -2.439016
C     -4.226887   -2.567724   -3.211914
O     -4.506313   -1.224369   -3.169076
C     -3.566168   -0.624631   -2.359321
C     -2.704426   -1.575618   -1.894260
C     -1.574261   -1.464045   -1.035374
C     -0.892457   -0.484496   -0.342247
C     -0.993183    0.920261   -0.135638
C     -1.867044    1.866486   -0.568884
O     -1.485790    3.073416   -0.038705
C     -0.372384    2.856616    0.727522
C     -0.017720    1.527032    0.691411
H      4.683960    4.920237    0.113859
H      2.817650    3.121112   -0.313814
H      3.811412    2.723415    5.054573
H      1.914556   -1.063725    1.594225
H     -1.898667   -7.313734   -2.392026
H     -3.647781   -5.569030   -3.349409
H     -4.891818   -3.165752   -3.818371
H     -3.694313    0.438416   -2.261122
H     -2.746233    1.914104   -1.186530
H      0.023369    3.736429    1.216706
