27

N     -1.606930   -3.209965   -0.675625
C     -0.492377   -3.024348   -0.411164
C      0.860089   -2.681526   -0.099425
C      1.795804   -3.732169   -0.053847
C      3.132489   -3.481580    0.246805
C      3.543950   -2.181059    0.505203
C      2.618422   -1.134711    0.460797
C      1.258149   -1.353481    0.155991
C      0.376452   -0.160841    0.143058
N      0.767799    1.048010    0.534947
C     -0.306655    1.873162    0.369025
N     -0.382441    3.199214    0.636804
C     -1.588949    3.755215    0.366998
N     -1.966081    5.060615    0.532958
C     -3.221435    5.099829    0.133382
N     -3.671702    3.874318   -0.284604
C     -2.639815    2.997631   -0.143294
N     -2.603926    1.678740   -0.424224
C     -1.387567    1.169430   -0.139312
N     -0.943133   -0.110092   -0.278284
H      1.484706   -4.757393   -0.252075
H      3.849937   -4.298114    0.281441
H      4.584463   -1.972006    0.743921
H      2.972394   -0.123913    0.670757
H     -3.851965    5.979694    0.123349
H     -4.591441    3.649631   -0.633042
H     -1.512925   -0.864194   -0.633382
