34

C      4.831558   -3.475841    0.652341
N      3.821855   -2.796569    0.157278
C      3.518241   -1.726486    0.991486
C      2.431313   -0.804541    0.666934
C      1.831595    0.015111    1.628215
C      0.786720    0.896006    1.286620
C      0.298141    0.953164   -0.034780
C      0.913933    0.138041   -1.005369
C      1.955562   -0.737107   -0.646412
C      0.438316    0.137431   -2.436468
C     -0.394752    1.368431   -2.758507
C     -1.414292    1.588361   -1.653429
N     -0.730828    1.840153   -0.385656
C     -1.549373    2.367407    0.704220
C     -0.656285    2.881655    1.820778
C      0.164347    1.729497    2.379541
C      4.335385   -1.618372    2.102604
S      5.490195   -2.888733    2.119931
H      5.229854   -4.355500    0.164131
H      2.154314   -0.024249    2.665215
H      2.401726   -1.372989   -1.410055
H     -0.161830   -0.766577   -2.598673
H      1.294552    0.097419   -3.120077
H      0.256836    2.247909   -2.842700
H     -0.895264    1.239885   -3.724406
H     -2.084140    0.723994   -1.559317
H     -2.034725    2.453744   -1.914737
H     -2.234681    1.593969    1.074078
H     -2.163778    3.197011    0.334968
H      0.011985    3.661190    1.432352
H     -1.257126    3.334417    2.617016
H     -0.479055    1.077818    2.983766
H      0.943244    2.132937    3.037302
H      4.329775   -0.877150    2.887649
