35

O      2.957826    4.822027   -2.306671
C      1.894107    4.251055   -2.107109
C      0.616841    4.921765   -2.419075
C     -0.559446    4.327834   -2.204535
C     -0.651124    2.966307   -1.642164
O     -1.743163    2.451985   -1.440544
C      0.608988    2.262629   -1.332082
C      0.563261    0.961139   -0.809030
C      1.743302    0.263110   -0.496580
C      1.693853   -1.100737    0.054630
C      2.469273   -2.136146   -0.466458
N      2.503243   -3.416211   -0.032467
C      1.681375   -3.666192    1.007316
S      1.592652   -5.223363    1.683576
C      0.439457   -4.720591    2.827785
N     -0.060786   -5.594926    3.726926
C     -0.965236   -5.061972    4.571344
C     -1.384866   -3.743702    4.568536
C     -0.843784   -2.873320    3.625235
C      0.110411   -3.373035    2.710616
C      0.844252   -2.751814    1.636298
C      0.860996   -1.428604    1.134245
C      2.970439    0.911224   -0.724666
C      3.019709    2.207669   -1.248865
C      1.835289    2.883793   -1.553689
H      0.687486    5.922391   -2.830209
H     -1.499083    4.818772   -2.431065
H     -0.406553    0.486403   -0.657273
H      3.126763   -1.955723   -1.316152
H     -1.371570   -5.763415    5.297012
H     -2.120621   -3.398077    5.286979
H     -1.153755   -1.832975    3.597222
H      0.233360   -0.672956    1.599477
H      3.910097    0.415136   -0.482037
H      3.984564    2.685488   -1.413357
