49

C     -5.162187    4.937895    1.350784
C     -4.146145    3.832896    1.317607
C     -4.340808    2.669163    2.094103
C     -3.427449    1.602563    2.064914
C     -2.312386    1.690867    1.244885
C     -2.152992    2.856731    0.474294
C     -3.031993    3.925054    0.478621
C     -1.235367    0.717689    1.049457
C     -1.067094   -0.525106    1.638720
C      0.058602   -1.295814    1.298946
C      1.031984   -0.845661    0.370787
C      2.206575   -1.679693    0.045659
C      3.041976   -2.132176    1.083072
C      4.181801   -2.896711    0.809187
C      5.044966   -3.356729    1.930821
N      5.283775   -2.501705    2.988087
O      6.387549   -2.902528    3.755678
N      5.573974   -4.548040    1.939999
C      4.524727   -3.206571   -0.509299
C      3.723863   -2.761030   -1.568192
C      4.112258   -3.081157   -2.984453
C      2.552176   -2.035578   -1.277654
O      1.779614   -1.613440   -2.335520
C      0.699884   -2.521534   -2.563124
C      0.858220    0.412257   -0.222181
C     -0.261337    1.144894    0.131233
S     -0.682308    2.737949   -0.485120
O     -1.051397    2.612238   -1.878034
O      0.276891    3.695718    0.020523
H     -4.698475    5.902816    1.121251
H     -5.951286    4.741894    0.618349
H     -5.612913    5.022194    2.345123
H     -5.217963    2.590469    2.735424
H     -3.609340    0.727821    2.681937
H     -2.854109    4.794553   -0.146777
H     -1.785573   -0.915156    2.353939
H      0.171276   -2.275407    1.764040
H      2.798119   -1.886495    2.115446
H      5.276178   -1.503561    2.787253
H      6.469724   -3.855941    3.515119
H      5.278438   -5.084955    1.117981
H      5.434627   -3.765922   -0.717039
H      4.023965   -2.194146   -3.620099
H      5.153018   -3.416975   -3.044923
H      3.474263   -3.876777   -3.380553
H      0.172250   -2.192713   -3.463595
H     -0.013489   -2.512177   -1.733218
H      1.062137   -3.540707   -2.735876
H      1.572491    0.807668   -0.939408
