30

N      0.995576    0.325307    0.203403
C      0.674819   -0.780352    0.980215
C     -0.589944   -1.418482    0.818334
C     -1.523066   -0.972582   -0.095451
C     -1.184623    0.196023   -0.916788
C      0.074471    0.846210   -0.768557
C      0.365831    1.956344   -1.565801
C     -0.566917    2.423034   -2.497352
C     -1.796296    1.789811   -2.643510
C     -2.105138    0.681247   -1.857497
C     -2.701621   -1.782917   -0.059388
C     -2.608818   -2.796941    0.871751
S     -1.110554   -2.773974    1.698673
N      1.625623   -1.122040    1.813706
C      2.621150   -0.215395    1.590703
C      2.277725    0.710648    0.594109
C      3.184419    1.722984    0.229226
C      4.425004    1.779809    0.881149
C      4.766284    0.863139    1.868439
C      3.869320   -0.140946    2.231631
H      1.296643    2.496755   -1.507927
H     -0.329379    3.288328   -3.112868
H     -2.516014    2.159003   -3.370200
H     -3.073375    0.207883   -1.994566
H     -3.579784   -1.643359   -0.676646
H     -3.346722   -3.551230    1.108300
H      2.977884    2.463694   -0.529426
H      5.134979    2.558418    0.607671
H      5.733349    0.925661    2.360821
H      4.121504   -0.863787    3.000560
