41

C      1.375537    1.308943    2.549385
C     -0.109677    1.165709    2.232285
N     -0.728126    2.441376    1.830407
C     -0.934661    3.333540    2.982749
C     -1.188688    4.775394    2.550103
C     -1.989293    2.195279    1.093313
C     -1.859469    2.515972   -0.413994
N     -0.837193    1.711749   -1.103932
C      0.406516    2.238930   -1.449601
S      0.937750    3.821632   -1.272872
N      1.304636    1.377313   -2.022324
C      1.049053    0.035141   -2.285680
C      2.039688   -0.755344   -2.873688
C      1.731701   -2.077909   -3.115625
C      0.503294   -2.610273   -2.796567
C     -0.488799   -1.850493   -2.216588
C     -0.200113   -0.503447   -1.960871
C     -1.202707    0.377213   -1.336345
O     -2.300176   -0.095771   -1.044227
O      0.411132   -3.927704   -3.117942
C      1.719289   -4.166775   -3.677959
O      2.563245   -2.995395   -3.677535
H      1.553081    1.902888    3.450031
H      1.912989    1.773894    1.716257
H      1.815386    0.320282    2.718425
H     -0.175926    0.444050    1.409267
H     -0.638655    0.720835    3.084332
H     -1.757048    2.976861    3.615556
H     -0.041770    3.358084    3.616043
H     -1.270410    5.419123    3.432234
H     -0.362214    5.151850    1.938138
H     -2.114858    4.881934    1.978016
H     -2.334050    1.163088    1.235132
H     -2.809272    2.811265    1.483355
H     -1.679846    3.586591   -0.543589
H     -2.827089    2.316470   -0.892484
H      2.206512    1.774383   -2.263077
H      3.014887   -0.361912   -3.135332
H     -1.452598   -2.282864   -1.969389
H      1.601067   -4.513497   -4.711003
H      2.211892   -4.954028   -3.095795
