39

C     -3.383224   -1.950470   -3.506041
C     -2.818743   -1.582530   -2.156212
O     -3.524832   -1.049381   -1.307247
N     -1.470825   -1.875556   -2.049629
C     -0.643236   -1.686623   -0.923916
C     -1.117153   -1.290594    0.329267
C     -0.234197   -1.104808    1.396813
C      1.133249   -1.307984    1.207145
S      2.243656   -1.034813    2.569151
O      3.549401   -1.534522    2.196053
O      1.565959   -1.480290    3.765830
N      2.320894    0.652563    2.624406
C      3.128969    1.314544    1.571780
C      2.752491    2.795759    1.472071
C      1.383859    2.988941    0.891317
C      1.063797    3.701109   -0.248019
S     -0.621534    3.625888   -0.537201
C     -0.810919    2.665139    0.874497
C     -2.167267    2.201713    1.277205
N      0.300333    2.395681    1.529766
C      1.620117   -1.739626   -0.026489
C      0.729300   -1.926099   -1.087994
H     -4.438829   -2.215150   -3.395678
H     -2.862395   -2.812553   -3.932698
H     -3.288612   -1.096012   -4.181138
H     -1.012067   -2.215731   -2.885312
H     -2.174311   -1.125567    0.513514
H     -0.621022   -0.797283    2.366257
H      1.369412    1.048006    2.664412
H      2.974908    0.833701    0.600541
H      4.186187    1.222713    1.842637
H      3.490941    3.306896    0.842745
H      2.788058    3.266848    2.461727
H      1.720900    4.245866   -0.910726
H     -2.812660    3.053564    1.513855
H     -2.106065    1.568634    2.168053
H     -2.634798    1.617654    0.478315
H      2.681814   -1.925651   -0.171965
H      1.126784   -2.252853   -2.045785
