42

C     -1.349236   -1.008463   -5.461479
C     -1.513969   -1.471225   -4.016957
N     -0.280296   -2.056826   -3.465921
C      0.728525   -1.024152   -3.173661
C      2.089947   -1.589090   -2.777393
C     -0.573147   -2.944999   -2.316236
C     -1.198620   -2.323065   -1.049934
O     -0.198608   -1.630719   -0.302536
C     -0.598206   -0.990174    0.837244
C     -1.881189   -1.004694    1.380518
C     -2.148764   -0.302124    2.557415
C     -1.136936    0.415639    3.196477
C      0.160392    0.440770    2.668304
C      1.283841    1.209958    3.339369
C      1.577646    0.668330    4.740560
C      0.987900    2.711051    3.385857
C      0.412479   -0.270998    1.484494
H     -2.321513   -0.712147   -5.869396
H     -0.954526   -1.813062   -6.090870
H     -0.684115   -0.144355   -5.544896
H     -1.873240   -0.637804   -3.401259
H     -2.308861   -2.227942   -4.023007
H      0.905530   -0.426389   -4.074568
H      0.377745   -0.323389   -2.407657
H      2.446284   -2.313350   -3.517439
H      2.825522   -0.779468   -2.722285
H      2.068028   -2.074604   -1.797843
H     -1.256899   -3.725512   -2.675813
H      0.340711   -3.483015   -2.038553
H     -2.021366   -1.651272   -1.318111
H     -1.594803   -3.142642   -0.437348
H     -2.694399   -1.552805    0.918055
H     -3.150508   -0.314875    2.979537
H     -1.371740    0.953938    4.111795
H      2.198879    1.080687    2.746107
H      0.731227    0.811123    5.421145
H      2.443808    1.178078    5.176270
H      1.801650   -0.403730    4.706805
H      1.842855    3.259226    3.796317
H      0.789722    3.102235    2.381698
H      0.116967    2.938080    4.010318
H      1.410321   -0.271133    1.050218
