39

N      2.832008    0.846995    3.540266
C      3.246443    0.497014    2.513677
C      3.812534    0.074138    1.262317
C      5.200071   -0.138260    1.203492
C      5.803365   -0.559217    0.018900
C      5.026133   -0.771817   -1.114840
C      3.646186   -0.563045   -1.064558
C      3.014107   -0.136122    0.119450
C      1.557377    0.068503    0.115520
C      1.007111    1.353551    0.172800
C     -0.385248    1.553151    0.160741
C     -1.265950    0.456930    0.059261
C     -0.712319   -0.838936    0.021078
C      0.682291   -1.020740    0.036223
C     -1.595106   -2.056884   -0.090389
C     -3.035668   -1.753329    0.291959
C     -3.479103   -0.471695   -0.393627
N     -2.655276    0.646565    0.059397
C     -3.142900    1.989702   -0.246083
C     -2.382529    3.017388    0.575390
C     -0.908251    2.967312    0.204826
H      5.817860    0.022475    2.085870
H      6.877980   -0.721431   -0.018296
H      5.491548   -1.099213   -2.041594
H      3.055359   -0.729494   -1.964651
H      1.664774    2.219633    0.226985
H      1.085849   -2.031037   -0.008596
H     -1.216632   -2.858710    0.554527
H     -1.556508   -2.415006   -1.126718
H     -3.683677   -2.588259    0.003901
H     -3.115706   -1.638378    1.380786
H     -4.528977   -0.282593   -0.140517
H     -3.419794   -0.569585   -1.485166
H     -3.044133    2.194509   -1.319802
H     -4.208575    2.060113    0.001803
H     -2.505429    2.802106    1.644831
H     -2.779607    4.022727    0.397557
H     -0.338047    3.559014    0.930681
H     -0.761055    3.418864   -0.784178
