45

C     -3.641981    3.727598   -1.555233
C     -2.959725    2.472210   -2.110473
C     -2.717103    2.599262   -3.618707
C     -3.774869    1.217110   -1.789536
C     -5.063967    0.893608   -2.190113
C     -5.601640   -0.323480   -1.767382
C     -4.855401   -1.195425   -0.958461
C     -3.557259   -0.865619   -0.557142
C     -3.021986    0.342237   -0.975373
C     -1.725958    0.933920   -0.718307
C     -0.653192    0.458047    0.022520
C      0.518073    1.232810    0.125993
C      1.671038    0.751049    0.907151
C      2.257003    1.553378    1.901754
C      3.351410    1.100793    2.645615
C      3.879811   -0.170628    2.405703
C      3.312409   -0.982917    1.426304
C      2.215904   -0.524768    0.681122
C      3.858351   -2.329654    1.165370
O      3.377685   -3.071043    0.318605
C      5.016910   -2.770003    1.967122
C      5.560898   -1.990504    2.904415
C      5.035900   -0.641809    3.193581
O      5.554180    0.049897    4.060061
C      0.567332    2.483235   -0.535156
C     -0.512166    2.965344   -1.282474
C     -1.652927    2.183654   -1.366899
H     -3.820397    3.647443   -0.475857
H     -3.028612    4.620972   -1.719915
H     -4.612221    3.899828   -2.035251
H     -2.228725    1.705797   -4.026772
H     -2.074595    3.457039   -3.848615
H     -3.658053    2.735631   -4.164113
H     -5.644494    1.563522   -2.815778
H     -6.609353   -0.601281   -2.067625
H     -5.292984   -2.139130   -0.641159
H     -2.990251   -1.547906    0.066923
H     -0.724789   -0.501838    0.525585
H      1.852459    2.542364    2.114370
H      3.783852    1.742499    3.411543
H      1.790338   -1.166152   -0.090955
H      5.399835   -3.761283    1.752993
H      6.411102   -2.312018    3.495010
H      1.469535    3.090407   -0.478162
H     -0.448634    3.926020   -1.783101
