37

C      0.319570    2.436257    3.758205
N      0.073918    1.756134    2.490898
C      0.097170    2.482736    1.287511
C      0.204969    3.878487    1.201182
C      0.230235    4.530732   -0.038724
C      0.142628    3.799842   -1.219684
C      0.019595    2.415870   -1.161330
C     -0.010805    1.770838    0.079106
O     -0.148342    0.400594    0.035131
C     -0.346036   -0.271533    1.229491
C     -0.646924   -1.647352    1.129242
C     -0.741229   -2.327193   -0.173909
C     -1.948834   -2.264096   -0.894139
C     -2.082338   -2.890805   -2.134738
C     -1.010858   -3.592111   -2.679219
C      0.195643   -3.666155   -1.983362
C      0.338001   -3.038361   -0.735484
C      1.600164   -3.146581   -0.057528
N      2.626629   -3.268635    0.471479
C     -0.869341   -2.369973    2.308729
C     -0.793974   -1.738952    3.547542
C     -0.488192   -0.377129    3.628066
C     -0.245044    0.384666    2.476328
H     -0.618834    2.812578    4.179129
H      0.799500    1.782442    4.494520
H      1.019040    3.272755    3.654885
H      0.257982    4.497590    2.090421
H      0.316627    5.613883   -0.077065
H      0.164552    4.306221   -2.180675
H     -0.056702    1.834439   -2.075657
H     -2.795072   -1.713066   -0.485822
H     -3.023569   -2.826550   -2.675550
H     -1.113307   -4.078817   -3.646188
H      1.028222   -4.215593   -2.419897
H     -1.107200   -3.431037    2.267178
H     -0.973935   -2.307439    4.456862
H     -0.459299    0.068028    4.617195
