28

O      1.540293    0.460342   -1.747238
C      0.828725    0.239150   -0.774876
C      0.610236    1.264330    0.261757
C      1.242826    2.508919    0.178113
C      1.017435    3.463654    1.170566
C      0.166382    3.168755    2.232386
O     -0.021741    4.133529    3.177058
C     -0.467892    1.932534    2.322176
C     -0.241530    0.978456    1.328770
O     -0.891727   -0.223479    1.459055
C     -0.660435   -1.180431    0.500234
C      0.133571   -1.058386   -0.573805
C      0.288012   -2.169020   -1.525209
C     -0.372333   -2.085538   -2.762000
C     -0.267386   -3.117290   -3.697675
C      0.499200   -4.244199   -3.410852
C      1.165596   -4.339375   -2.189267
C      1.063648   -3.307744   -1.250062
Cl     1.926663   -3.490756    0.238662
H      1.907654    2.735041   -0.652667
H      1.504457    4.433909    1.116451
H     -0.622922    3.795253    3.861251
H     -1.132344    1.698349    3.147453
H     -1.219460   -2.077786    0.738312
H     -0.965842   -1.207275   -3.010141
H     -0.778810   -3.035691   -4.654023
H      0.585085   -5.044887   -4.141445
H      1.769026   -5.218341   -1.976455
