43

C      4.677403   -0.342757   -4.421114
C      4.049052   -0.145264   -5.658133
C      2.678533   -0.293847   -5.394832
C      1.486106   -0.259158   -6.026987
S      0.250921   -0.593044   -4.842164
C      1.386802   -0.735408   -3.542826
C      1.022753   -1.055304   -2.185231
C      1.394338   -2.265745   -1.552896
C      1.033322   -2.608954   -0.212874
C      0.264395   -1.777058    0.632435
C     -0.116444   -2.162720    1.977505
C      0.643368   -2.657265    3.019581
C     -0.224224   -2.900575    4.113292
C     -1.510233   -2.571476    3.723518
N     -1.421061   -2.153565    2.415635
C     -2.746895   -2.631825    4.452886
S     -2.867351   -3.344805    6.027753
C     -4.551063   -3.027538    6.164330
C     -4.947093   -2.402114    5.035303
C     -6.199766   -1.907267    4.601948
C     -6.132252   -1.318574    3.335094
S     -4.554949   -1.311998    2.561976
C     -3.977710   -2.161590    4.059557
C     -0.084070   -0.555743    0.023753
C     -0.761217    0.467325    0.648618
S     -0.996509    1.811463   -0.392262
C     -0.152753    1.053592   -1.680412
C      0.281856   -0.207440   -1.339738
C      2.623577   -0.558743   -4.047654
O      3.808740   -0.609121   -3.377973
H      5.719052   -0.326170   -4.127522
H      4.542708    0.071776   -6.594303
H      1.238727   -0.079150   -7.063339
H      1.987228   -2.988823   -2.115227
H      1.364182   -3.576824    0.166057
H      1.714719   -2.812635    3.001181
H      0.069793   -3.276896    5.084891
H     -2.210895   -1.871579    1.850257
H     -5.114044   -3.313251    7.041486
H     -7.121882   -1.963506    5.167718
H     -6.949751   -0.868537    2.787933
H     -1.126734    0.524658    1.664318
H     -0.022297    1.593110   -2.607963
