42

C     -4.414362   -5.286939    1.946061
N     -3.253884   -5.622461    2.464388
C     -2.318828   -4.657764    2.138781
C     -2.777231   -3.607014    1.366958
S     -4.452676   -3.821279    1.057233
C     -2.073047   -2.439777    0.886817
C     -1.510043   -1.452945    1.718026
C     -0.790163   -0.290466    1.254716
C     -0.293881    0.572699    2.219680
C      0.430831    1.718280    1.878128
C      0.694249    2.104855    0.550272
C      0.148900    1.282299   -0.473275
C      0.290732    1.744952   -1.795971
C      0.967416    2.920450   -2.135630
C      1.571006    3.717594   -1.175163
C      2.261751    4.902742   -1.635313
C      2.941870    5.821883   -0.816399
C      2.865234    5.408431    0.496668
C      3.450914    6.046378    1.555569
O      3.206720    5.340307    2.693878
C      2.457934    4.248789    2.346386
C      2.189150    4.248716    0.997491
C      1.455864    3.302407    0.200281
C     -0.548700    0.045238   -0.125905
C     -1.090826   -1.013518   -0.936381
C     -0.999398   -1.209058   -2.294521
O     -1.632109   -2.362385   -2.663105
C     -2.116630   -2.941307   -1.531434
C     -1.802384   -2.163662   -0.446895
H     -5.300638   -5.895148    2.071985
H     -1.300855   -4.773252    2.492181
H     -1.637839   -1.581678    2.795836
H     -0.454954    0.373826    3.278740
H      0.749339    2.330734    2.710634
H     -0.169180    1.220805   -2.622834
H      1.009778    3.194635   -3.189045
H      2.267748    5.113799   -2.707546
H      3.454968    6.696263   -1.188768
H      4.048898    6.938503    1.676060
H      2.240677    3.602816    3.181205
H     -0.538340   -0.696340   -3.123066
H     -2.627172   -3.883440   -1.675056
