29

C     -4.665215   -1.341095    0.780132
O     -3.621877   -0.768770    1.558578
C     -2.374021   -0.748103    0.999354
C     -2.021070   -1.283178   -0.240138
C     -0.699284   -1.194753   -0.692385
C      0.275491   -0.558519    0.085491
C      1.677828   -0.534579   -0.409194
O      2.084090   -1.484614   -1.078814
N      2.482397    0.562427   -0.110434
C      3.896875    0.472564   -0.383576
C      4.440658    1.809613    0.059179
C      3.320955    2.763500   -0.314947
C      2.080657    1.907333   -0.192824
O      0.947107    2.359164   -0.172266
C     -0.072288   -0.041842    1.336802
C     -1.393892   -0.132375    1.783303
H     -4.802784   -0.795841   -0.159534
H     -4.482151   -2.405115    0.597593
H     -5.593987   -1.256948    1.352626
H     -2.744733   -1.779676   -0.877730
H     -0.432111   -1.625605   -1.655245
H      4.043002    0.317830   -1.459683
H      4.340077   -0.369365    0.157235
H      4.585114    1.816592    1.146660
H      5.394023    2.062133   -0.412720
H      3.411479    3.106479   -1.350189
H      3.274754    3.618322    0.364088
H      0.668268    0.433547    1.972772
H     -1.663391    0.282096    2.751941
