46

C     -1.758432   -5.037596    4.909310
C     -1.302123   -3.646591    4.585498
C     -1.817345   -2.549366    5.279845
C     -1.416223   -1.247619    4.953403
C     -0.493642   -1.000213    3.921076
C     -0.006646   -2.117084    3.218083
C     -0.404005   -3.419560    3.540679
C     -0.052988    0.366432    3.565202
N      0.283993    0.555975    2.262767
C      0.691002    1.783460    1.847571
C      1.028029    1.895153    0.411889
C      1.528672    0.791678   -0.296926
C      1.861227    0.880410   -1.656135
C      1.709628    2.076851   -2.374778
C      1.188336    3.175413   -1.672368
C      0.855369    3.086696   -0.310796
C      2.073460    2.151425   -3.806627
N      1.947949    0.994385   -4.508020
C      2.260486    0.992181   -5.825701
C      2.100663   -0.301628   -6.565592
C      2.712439    2.125197   -6.489365
C      2.851122    3.304614   -5.769948
C      2.530331    3.320108   -4.414828
C      0.792164    2.851304    2.735666
C      0.460082    2.656396    4.071761
C      0.031958    1.402040    4.492343
H     -0.971822   -5.767655    4.691239
H     -2.646098   -5.287214    4.319974
H     -2.001563   -5.130900    5.973019
H     -2.541737   -2.696596    6.077823
H     -1.858678   -0.424275    5.508952
H      0.696473   -1.973434    2.398680
H     -0.005662   -4.251245    2.964092
H      1.665534   -0.161893    0.211154
H      2.245164   -0.007060   -2.157780
H      1.005679    4.119385   -2.180752
H      0.431403    3.966438    0.168010
H      1.376799   -0.185594   -7.378189
H      3.061314   -0.620427   -6.981822
H      1.739969   -1.090667   -5.897835
H      2.956653    2.092312   -7.545919
H      3.210393    4.205953   -6.257946
H      2.657091    4.236370   -3.848912
H      1.145036    3.823702    2.410120
H      0.543000    3.473750    4.782301
H     -0.208405    1.243311    5.537910
