40

C      3.683983   -2.630288   -4.206913
C      4.516646   -2.841257   -3.131929
S      3.831030   -2.142826   -1.727794
C      2.472043   -1.613814   -2.654378
N      2.526176   -1.930207   -3.934160
C      1.389573   -0.868963   -2.018568
C      0.864676   -1.142789   -0.734452
C     -0.210066   -0.429465   -0.102490
C     -0.530418   -0.781251    1.213216
C     -1.540999   -0.140420    1.934952
C     -2.358717    0.820572    1.325832
C     -3.413633    1.396907    2.114393
N     -3.780026    1.273208    3.443581
C     -4.898170    2.036990    3.714361
C     -5.296563    2.666752    2.553378
C     -4.365644    2.259238    1.604177
C     -4.288590    2.526664    0.224721
C     -5.144062    3.215054   -0.572969
O     -4.701588    3.060687   -1.859235
C     -3.574199    2.276511   -1.812495
C     -3.222288    1.979160   -0.511826
C     -2.137502    1.167124   -0.051298
C     -0.957674    0.626646   -0.729902
C     -0.324308    0.982678   -1.971317
C     -0.542451    2.169921   -2.633594
S      0.348902    2.290208   -4.092731
C      1.175654    0.825953   -3.775706
C      0.775033    0.254674   -2.587375
H      3.873195   -2.966053   -5.219340
H      5.466094   -3.355867   -3.105994
H      1.311671   -1.970449   -0.178781
H      0.036699   -1.558705    1.725069
H     -1.698657   -0.448433    2.964721
H     -3.292517    0.709821    4.125386
H     -5.315686    2.054479    4.712365
H     -6.150648    3.319659    2.437000
H     -6.057310    3.776582   -0.443910
H     -3.187059    2.014319   -2.786157
H     -1.161006    3.008495   -2.353766
H      1.938824    0.497007   -4.468239
