36

C     -1.826667   -6.311600    2.408675
O     -1.551761   -5.384013    1.357968
C     -0.311389   -4.836547    1.418779
O      0.531005   -5.074475    2.269840
C     -0.101379   -3.885452    0.292872
C     -1.077961   -3.646741   -0.682824
C     -0.831634   -2.741902   -1.720433
C      0.390600   -2.059714   -1.795985
C      0.656502   -1.092626   -2.928138
O      1.193754    0.164256   -2.497666
N      0.273071    0.826768   -1.683083
C     -0.777000    1.528048   -2.186785
O     -1.217381    1.593320   -3.319062
C     -1.311776    2.284829   -1.053688
C     -2.415042    3.111474   -0.971409
C     -2.663334    3.722277    0.262060
C     -1.811289    3.501766    1.365093
C     -0.694899    2.666552    1.255236
C     -0.474507    2.067851    0.030457
C      0.600446    1.176357   -0.408313
O      1.574396    0.908492    0.269739
C      1.368498   -2.309575   -0.823684
C      1.123082   -3.211049    0.215308
H     -1.776166   -5.814205    3.382363
H     -2.841914   -6.692321    2.266977
H     -1.131331   -7.155867    2.366851
H     -2.036071   -4.159850   -0.650793
H     -1.603706   -2.575222   -2.469615
H      1.392568   -1.546516   -3.601511
H     -0.246335   -0.917211   -3.525081
H     -3.057517    3.281093   -1.829573
H     -3.522421    4.382135    0.373763
H     -2.024340    3.994177    2.312771
H     -0.026121    2.496443    2.093170
H      2.324103   -1.787030   -0.859034
H      1.893455   -3.379854    0.965972
