43

Si    -3.673637    3.201354    0.957946
C     -2.789133    1.896138   -0.035722
C     -1.558059    1.664617    0.457609
C     -0.593554    0.734785   -0.042226
C     -0.604759   -0.172337   -1.121943
C      0.620606   -0.828302   -1.133769
N      1.358983   -0.319297   -0.082769
C      0.631882    0.625054    0.585830
C      1.056674    1.386652    1.751113
N      2.303688    1.126646    2.213952
C      2.734397    1.815668    3.298591
C      1.909954    2.764741    3.913495
C      2.035823    3.638411    5.027898
C      0.851743    4.330617    5.114662
O      0.001129    3.945682    4.130650
C      0.635997    2.988540    3.389172
C      0.142070    2.312949    2.281935
C     -1.190477    2.485756    1.658717
C     -2.164067    3.332413    2.054602
C      1.145640   -1.845330   -2.022911
C      2.439606   -1.812665   -2.601832
C      2.952761   -2.824366   -3.489400
C      2.232036   -3.973822   -3.887178
C      0.971987   -3.986744   -3.303550
C      0.024679   -4.964265   -3.464626
N     -1.061055   -4.596718   -2.698253
C     -0.811333   -3.402607   -2.054227
C      0.446216   -2.989367   -2.424454
H     -3.917268    4.439913    0.179895
H     -4.851862    2.662638    1.679522
H     -3.248852    1.420751   -0.886972
H     -1.406648   -0.335856   -1.829543
H      2.292046   -0.606959    0.180562
H      3.735018    1.587618    3.648502
H      2.886186    3.748523    5.685760
H      0.475817    5.091830    5.784380
H     -2.147322    4.023136    2.881774
H      3.089086   -0.964480   -2.384229
H      3.961681   -2.689912   -3.880850
H      2.628031   -4.727497   -4.551865
H      0.012943   -5.882075   -4.036059
H     -1.915156   -5.131289   -2.610078
H     -1.551181   -2.972887   -1.393159
