32

C      3.104499   -0.623383   -4.453562
C      2.793902    0.710603   -4.261921
N      2.024796    1.177051   -3.247650
C      1.525534    0.300672   -2.364563
C      0.730577    0.794330   -1.318144
C      0.122228    0.017856   -0.295534
C     -0.703219    0.604653    0.762879
C     -1.727741    1.506160    0.479239
N     -2.524575    2.102646    1.402129
C     -2.322476    1.802957    2.695891
C     -3.115877    2.387017    3.666104
C     -2.902061    2.074770    4.997515
N     -1.950999    1.220130    5.422044
C     -1.183478    0.654938    4.465371
C     -1.321511    0.907711    3.099938
C     -0.510130    0.313086    2.116860
C      0.368690   -1.383093   -0.383271
N     -0.091344   -2.338533    0.443957
S      0.481669   -3.787623   -0.115774
N      1.350126   -3.283836   -1.433224
C      1.219371   -1.946242   -1.497364
C      1.794319   -1.082697   -2.486307
C      2.595831   -1.542360   -3.548888
H      3.725626   -0.936759   -5.285048
H      3.166855    1.472479   -4.941831
H      0.587067    1.877858   -1.295993
H     -1.959800    1.788567   -0.545838
H     -3.897610    3.082591    3.382861
H     -3.511061    2.519301    5.779640
H     -0.427842   -0.031132    4.838973
H      0.273953   -0.378931    2.418567
H      2.814757   -2.601310   -3.661659
