45

Si    -2.161713    2.630923   -2.705616
C     -1.714160    2.791856   -0.910259
C     -1.114002    1.672117   -0.461559
C     -0.477401    1.515486    0.809452
C     -0.370573    2.345435    1.945743
C      0.405211    1.667488    2.874168
N      0.797588    0.474395    2.302269
C      0.247836    0.369679    1.057886
C      0.337160   -0.714744    0.126506
S      1.273620   -2.108742    0.362185
C      0.652926   -2.847176   -1.071916
C      0.981292   -4.145263   -1.575730
C      0.348281   -4.694015   -2.703487
C     -0.631238   -3.851445   -3.194257
C     -1.481015   -4.183669   -4.222904
N     -2.375281   -3.141886   -4.372474
C     -2.110881   -2.151277   -3.446880
C     -1.003973   -2.564962   -2.764193
C     -0.271139   -1.984494   -1.666361
C     -0.355839   -0.693521   -1.083816
C     -1.005022    0.551102   -1.468366
C     -1.408234    0.924355   -2.700020
C      0.810486    2.057566    4.183792
S      1.538483    3.588523    4.549170
C      1.754798    3.208102    6.233501
C      1.248120    1.975747    6.439322
C      1.036045    1.027309    7.469134
C      0.386461   -0.080508    6.883026
N      0.168511    0.112628    5.519893
C      0.722248    1.348164    5.331487
H     -3.627072    2.592504   -2.929952
H     -1.414811    3.575673   -3.569885
H     -1.849919    3.716013   -0.371812
H     -0.809808    3.324324    2.086613
H      1.410628   -0.206912    2.728859
H      1.732392   -4.737891   -1.056034
H      0.575003   -5.680578   -3.083237
H     -1.560871   -5.066389   -4.842901
H     -3.141536   -3.127456   -5.032960
H     -2.765441   -1.297441   -3.367452
H     -1.310900    0.373470   -3.619093
H      2.211895    3.907521    6.917919
H      1.300094    1.115781    8.514654
H      0.045985   -1.000236    7.341613
H     -0.300692   -0.468965    4.836091
