29

C     -2.832137    2.364882   -1.261012
C     -1.394232    2.061241   -0.945687
C     -1.049002    0.776131   -0.494031
C      0.277965    0.449609   -0.198963
N      0.539309   -0.871337    0.296664
C      0.824100   -0.951546    1.758159
C      0.279565   -2.205644    2.402311
O      0.699892   -2.714232    3.431511
O     -0.816057   -2.716557    1.798571
S      1.531977   -1.877707   -0.656314
C      0.522942   -2.113394   -2.105465
O      1.637805   -3.159190    0.011136
O      2.728527   -1.152619   -1.027525
C      1.274155    1.416998   -0.313986
C      0.948417    2.697574   -0.762771
C     -0.375758    3.018158   -1.079683
Br    -0.729528    4.784083   -1.681959
H     -3.471549    1.490571   -1.097438
H     -2.941258    2.654861   -2.310890
H     -3.204905    3.166100   -0.615002
H     -1.819663    0.017571   -0.368093
H      0.363396   -0.106151    2.283124
H      1.906026   -0.904566    1.927027
H     -0.996121   -3.534781    2.306967
H      1.037475   -2.822594   -2.757878
H     -0.441448   -2.524981   -1.801945
H      0.402380   -1.161310   -2.624245
H      2.307498    1.189052   -0.064315
H      1.737021    3.440415   -0.860228
