35

C      0.257281   -1.279507    1.844934
C     -0.057096   -0.784201    0.502867
N      0.393775   -1.330119   -0.614142
C     -0.107953   -0.576961   -1.649851
C      0.197341   -0.874191   -3.037918
C     -0.775348   -0.790992   -4.042614
C     -0.451427   -1.089853   -5.369020
C      0.844221   -1.483128   -5.700301
C      1.815233   -1.586760   -4.706179
C      1.491334   -1.288699   -3.380599
C     -0.875766    0.461821   -1.165166
N     -0.886268    0.294801    0.218922
C     -1.643583    1.111825    1.066971
C     -2.354920    2.127795    0.551088
C     -2.306108    2.364064   -0.880838
C     -1.597257    1.567741   -1.703446
C      0.093246   -2.641148    2.131415
C      0.391284   -3.141565    3.400599
C      0.869004   -2.286328    4.391820
C      1.058248   -0.933825    4.112672
C      0.759703   -0.433064    2.842931
H     -1.798336   -0.515274   -3.801109
H     -1.213394   -1.024899   -6.141250
H      1.094883   -1.719170   -6.731158
H      2.823429   -1.904513   -4.958081
H      2.252950   -1.381688   -2.608463
H     -1.639641    0.886245    2.125195
H     -2.959024    2.779874    1.172339
H     -2.858064    3.213181   -1.272907
H     -1.562343    1.768779   -2.769364
H     -0.265200   -3.318092    1.357765
H      0.257785   -4.199654    3.610261
H      1.106614   -2.677200    5.377936
H      1.449441   -0.270782    4.880096
H      0.941451    0.618879    2.635369
