42

C      0.176711    5.027666    1.430506
C      0.585589    5.524642    2.795832
C      0.770396    4.526107    3.672070
C      0.503460    3.279869    2.976061
C      0.560787    1.988321    3.455823
C      0.255836    0.933943    2.582422
C     -0.110515    1.124043    1.224910
C     -0.408349   -0.029850    0.398036
N     -0.334816   -1.274219    0.920259
C     -0.615100   -2.356300    0.143616
C     -0.984823   -2.317947   -1.196400
C     -1.069520   -1.048667   -1.760836
C     -0.783962    0.091649   -0.973960
C     -0.826617    1.431024   -1.413981
C     -1.148654    1.883064   -2.671434
N     -1.058895    3.256009   -2.643926
C     -0.685200    3.679833   -1.386674
C     -0.533462    2.562487   -0.600842
C     -0.158241    2.493286    0.763543
C      0.150162    3.545658    1.649292
C     -1.268414   -3.536933   -1.965297
C     -0.354369   -4.603902   -1.996952
C     -0.624933   -5.763797   -2.728338
C     -1.815728   -5.877307   -3.440780
C     -2.735382   -4.832187   -3.423578
C     -2.463072   -3.672339   -2.692936
H      0.923983    5.310821    0.683852
H     -0.812103    5.413166    1.166461
H      0.711611    6.572709    3.027002
H      1.062590    4.604198    4.706449
H      0.834819    1.782321    4.485239
H      0.307057   -0.079935    2.982044
H     -0.536275   -3.304597    0.671464
H     -1.341244   -0.934043   -2.805934
H     -1.430824    1.373485   -3.582395
H     -1.239933    3.865873   -3.431092
H     -0.568791    4.735970   -1.194737
H      0.589720   -4.534853   -1.459414
H      0.096958   -6.576403   -2.742607
H     -2.026759   -6.779552   -4.008867
H     -3.667579   -4.918817   -3.975829
H     -3.202791   -2.873897   -2.684788
