42

C      3.764697    2.234827   -2.384684
O      2.675554    1.677490   -3.105147
C      1.897935    0.743386   -2.464167
C      2.091607    0.329303   -1.141213
C      1.238495   -0.620819   -0.574475
C      0.196669   -1.179115   -1.328441
C      0.005898   -0.775375   -2.653772
C      0.844473    0.190203   -3.224802
O      0.728611    0.651124   -4.514131
C     -0.333354    0.139713   -5.305562
C     -0.623867   -2.276331   -0.691581
N     -0.992573   -2.037805    0.713899
C     -2.369176   -1.530496    0.830581
C     -2.884259   -1.552405    2.246464
C     -3.073131   -0.486109    3.104301
C     -3.587426   -0.891388    4.369403
C     -3.783299   -2.254315    4.440128
C     -4.300831   -3.059621    5.581552
S     -3.348232   -3.030914    2.979518
C     -0.027347   -1.204025    1.463078
C      1.377764   -1.101416    0.845981
H      4.277088    2.940286   -3.045965
H      4.487214    1.463069   -2.099465
H      3.415180    2.793937   -1.510551
H      2.891266    0.735142   -0.531665
H     -0.794923   -1.234041   -3.223277
H     -0.222496   -0.937698   -5.465944
H     -0.285850    0.626978   -6.284241
H     -1.306704    0.377175   -4.863735
H     -1.506818   -2.497526   -1.304403
H     -0.016851   -3.191120   -0.725400
H     -2.441867   -0.513356    0.422646
H     -3.048468   -2.149676    0.228644
H     -2.848220    0.539335    2.837354
H     -3.802709   -0.213288    5.186343
H     -3.558574   -3.796631    5.905402
H     -5.218492   -3.586926    5.300748
H     -4.532189   -2.418935    6.438983
H      0.062979   -1.599482    2.481652
H     -0.407188   -0.176262    1.554688
H      1.980557   -0.400668    1.434761
H      1.884139   -2.073767    0.857028
