25

N     -0.100372    3.381280    2.146005
C      0.730074    2.904076    1.491373
C      1.770345    2.355951    0.688624
C      2.955431    3.046485    0.540059
N      3.982609    2.624739   -0.225796
C      3.796090    1.465268   -0.868249
N      2.693835    0.710348   -0.799114
C      1.684153    1.164495   -0.008794
C      0.517341    0.276285    0.019132
N      0.071860   -0.555762   -0.909839
C     -1.020529   -1.147030   -0.333305
C     -1.917154   -2.107269   -0.808226
C     -2.939261   -2.503836    0.043351
O     -3.925504   -3.415712   -0.191313
C     -4.643820   -3.412882    0.968718
N     -4.210580   -2.595424    1.905293
C     -3.117593   -2.003922    1.327466
C     -2.220024   -1.043542    1.801251
C     -1.198050   -0.648738    0.949007
O     -0.211200    0.259571    1.185264
H      3.127385    3.997157    1.041652
H      4.605266    1.107499   -1.496132
H     -1.816379   -2.525002   -1.802978
H     -5.495135   -4.078287    1.008120
H     -2.321483   -0.624636    2.795654
