41

C      1.996571   -2.123897   -1.523791
N      1.315247   -2.721496   -2.567987
C      0.048653   -2.352632   -2.547638
S     -0.380519   -1.341962   -1.222335
C      1.245497   -1.328288   -0.679877
C      1.729143   -0.611534    0.470651
N      2.999275   -0.671500    0.823961
C      3.212396    0.097604    1.952169
C      2.101589    0.743921    2.452921
S      0.740885    0.370290    1.482801
C      1.975507    1.628414    3.610291
C      1.430010    1.094032    4.789938
C      1.306033    1.877970    5.931789
C      1.728321    3.204553    5.908886
C      2.278452    3.768318    4.747406
C      2.697606    5.109160    4.747085
C      3.243303    5.691565    3.604379
C      3.374577    4.941201    2.443946
C      2.962407    3.606884    2.427431
C      2.409454    2.983819    3.573150
C     -0.942391   -2.844794   -3.500464
C     -0.876748   -4.167304   -4.004762
C     -1.797512   -4.701772   -4.935348
C     -2.865826   -3.959240   -5.459555
C     -2.976004   -2.619493   -5.015936
N     -3.917620   -1.749245   -5.410967
S     -3.598617   -0.322884   -4.628717
N     -2.259238   -0.744225   -3.749671
C     -1.994470   -2.036281   -4.017528
H      3.059847   -2.307170   -1.414632
H      4.209540    0.155635    2.372871
H      1.101559    0.056915    4.823098
H      0.881867    1.456776    6.839567
H      1.622785    3.801458    6.812826
H      2.600499    5.716057    5.645051
H      3.561794    6.730447    3.621761
H      3.794304    5.390546    1.547575
H      3.074071    3.056032    1.495610
H     -0.069128   -4.815293   -3.655452
H     -1.667973   -5.734496   -5.261215
H     -3.565127   -4.377886   -6.173547
