40

C     -2.372961    0.340055   -3.760709
C     -1.538361   -0.684306   -3.011881
O     -1.939176   -0.652556   -1.635714
C     -1.010124   -1.251097   -0.824179
C     -0.361976   -0.418580    0.090430
C      0.600440   -0.951664    0.955424
C      1.322887   -0.100973    1.941623
O      1.623778   -0.596520    3.020522
N      1.612715    1.177508    1.509794
C      2.259150    2.203161    2.235447
C      2.655991    2.099560    3.568697
C      3.288416    3.177544    4.201440
C      3.527002    4.365862    3.508954
C      3.132350    4.481050    2.178807
C      2.504998    3.405011    1.557531
F      2.126538    3.527097    0.274085
C      0.885073   -2.322978    0.924530
C      0.215260   -3.155584    0.024894
Br     0.645662   -5.004087    0.021668
C     -0.754450   -2.628637   -0.836465
O     -1.413537   -3.458348   -1.707043
C     -2.732578   -3.749184   -1.223949
C     -3.338003   -4.803022   -2.132550
H     -2.220845    1.342575   -3.346012
H     -2.110120    0.354265   -4.822084
H     -3.440813    0.112444   -3.664152
H     -1.722982   -1.675207   -3.440322
H     -0.474934   -0.432394   -3.118249
H     -0.633256    0.632993    0.124699
H      1.405083    1.419390    0.546577
H      2.487342    1.195581    4.146424
H      3.594922    3.083544    5.241453
H      4.018348    5.197308    4.008119
H      3.307161    5.397392    1.624042
H      1.627145   -2.733815    1.606998
H     -2.694234   -4.134682   -0.197132
H     -3.358841   -2.849841   -1.248699
H     -3.384457   -4.439604   -3.165337
H     -4.347892   -5.065423   -1.804250
H     -2.720856   -5.708488   -2.138883
