36

C     -6.812170   -0.769823   -1.483356
C     -6.547418   -2.064947   -1.854923
S     -4.876869   -2.401450   -1.840264
C     -4.462790   -0.805070   -1.330919
C     -5.618370   -0.049102   -1.183514
C     -3.051795   -0.407160   -1.113179
C     -2.727748    0.893601   -0.698954
N     -1.476746    1.376486   -0.466730
C     -0.455554    0.513940   -0.655661
C      0.852042    1.009608   -0.415672
O      1.212863    2.276722   -0.009031
C      2.577478    2.289513    0.089490
C      3.364598    3.369001    0.469185
C      4.736990    3.122604    0.490182
C      5.215750    1.860949    0.143455
N      4.461147    0.800120   -0.228383
C      3.126176    1.050751   -0.245520
C      2.016047    0.275600   -0.555967
C      1.872240   -1.069466   -0.971017
C      2.810133   -2.028814   -1.194881
N      2.088901   -3.140400   -1.579669
C      0.730061   -2.855531   -1.588156
C      0.569482   -1.542174   -1.203769
C     -0.648265   -0.828136   -1.073211
C     -1.968421   -1.278036   -1.300284
H     -7.811579   -0.355740   -1.428069
H     -7.256241   -2.832116   -2.135079
H     -5.628430    0.987900   -0.872016
H     -3.499044    1.639788   -0.527734
H      2.934010    4.327360    0.727935
H      5.430259    3.908010    0.774812
H      6.286110    1.664908    0.158665
H      3.889832   -2.042293   -1.124018
H      2.493092   -4.036166   -1.821397
H      0.023061   -3.624470   -1.868775
H     -2.115556   -2.304466   -1.619635
