33

O     -1.943808   -0.983062   -0.941728
C     -0.858504   -0.918672   -0.370720
C      0.452378   -0.781916   -1.160336
N      0.761369    0.593184   -1.587258
C      0.950172    1.545408   -0.481056
C      1.280348    2.979654   -0.975573
N      1.405788    3.087508   -2.440969
C      0.177203    2.549121   -3.059018
C     -0.205639    1.128229   -2.563983
N     -0.655238   -0.941386    0.998655
C     -1.621584   -1.044716    2.027104
C     -2.989761   -1.191082    1.785030
C     -3.894243   -1.289864    2.848923
C     -3.443369   -1.243970    4.166344
C     -2.083011   -1.098125    4.426163
C     -1.180234   -0.999495    3.364107
Cl     0.501506   -0.813285    3.739016
H      1.286741   -1.173795   -0.565947
H      0.386376   -1.443219   -2.033333
H      0.053809    1.603479    0.147841
H      1.775402    1.197362    0.151718
H      2.223324    3.309642   -0.525046
H      0.507111    3.676426   -0.629305
H      2.152287    2.438704   -2.705114
H     -0.652482    3.241450   -2.871448
H      0.326098    2.526181   -4.144635
H     -0.251108    0.460156   -3.432375
H     -1.212158    1.179461   -2.132468
H      0.300514   -0.842840    1.327027
H     -3.391333   -1.234755    0.777238
H     -4.956214   -1.403940    2.641333
H     -4.151724   -1.321305    4.987584
H     -1.732791   -1.061628    5.454321
