38

C      1.827456    0.807863   -0.517273
C      2.967933    0.856990    0.536052
C      2.649242    0.108831    1.624468
C      1.373797   -0.445564    1.386619
S      0.381737   -1.454441    2.288853
C     -0.847349   -1.448144    1.041809
C     -2.107658   -2.089598    0.982528
Si    -2.892527   -3.184324    2.253792
C     -4.389052   -3.368827    1.096892
C     -4.255411   -2.684768   -0.056007
C     -2.986452   -1.968569   -0.128373
C     -2.491483   -1.165460   -1.142334
C     -3.095134   -0.852284   -2.338336
N     -2.235552   -0.020823   -3.039142
C     -1.083339    0.207296   -2.310736
C     -1.254247   -0.497207   -1.156687
C     -0.395138   -0.644315   -0.016652
C      0.857818   -0.075861    0.172228
C      4.166345    1.624330    0.295201
C      4.459349    2.360764   -0.800475
C      5.744766    3.043401   -0.793621
C      6.490221    2.857697    0.309198
Si     5.616390    1.742302    1.535270
H      2.177016    0.365247   -1.455250
H      1.409120    1.804232   -0.690879
H      3.225989   -0.059534    2.520718
H     -2.205034   -4.487198    2.439541
H     -3.275536   -2.482474    3.504939
H     -5.230957   -3.975465    1.392156
H     -4.987365   -2.653895   -0.849809
H     -4.047359   -1.133017   -2.766928
H     -2.426854    0.363805   -3.955115
H     -0.292091    0.834095   -2.695257
H      3.808937    2.468332   -1.660072
H      6.054292    3.653250   -1.633771
H      7.465463    3.271512    0.510923
H      6.312903    0.444154    1.716778
H      5.239054    2.455581    2.781097
