38

C      0.413804    1.206357    5.478634
C     -0.371891    2.332616    5.783602
C     -0.958418    2.759880    4.572200
C     -1.784159    3.722267    4.122632
S     -1.972818    3.483100    2.422251
C     -0.921930    2.078922    2.369976
C     -0.666742    1.385790    1.131589
C     -1.165922    1.678966   -0.144287
C     -0.629930    0.724018   -1.002290
C     -0.757995    0.490492   -2.404122
C     -1.520453    1.258032   -3.240218
S     -1.409221    0.646192   -4.857975
C     -0.338947   -0.636193   -4.397797
C     -0.094492   -0.573125   -3.053754
C      0.748299   -1.485340   -2.351708
C      1.501263   -2.590367   -2.733841
N      1.706197   -3.204217   -3.927543
C      2.530784   -4.275796   -3.863725
C      3.149201   -4.762852   -2.714133
C      2.933992   -4.127086   -1.491484
C      2.089753   -3.025170   -1.539967
O      1.721479   -2.233900   -0.480273
C      0.893229   -1.288636   -1.000428
C      0.169428   -0.131321   -0.302098
N      0.148923    0.269397    0.998072
C     -0.481184    1.860516    3.637690
N      0.357262    0.891004    4.121022
H      1.020235    0.592653    6.132776
H     -0.488077    2.768752    6.766994
H     -2.279340    4.527166    4.645834
H     -1.835068    2.491607   -0.394049
H     -2.129741    2.124799   -3.026331
H      0.029297   -1.335288   -5.136960
H      2.696997   -4.770016   -4.819215
H      3.795182   -5.633624   -2.773090
H      3.388059   -4.462005   -0.568301
H      0.659359   -0.195094    1.729241
H      0.819435    0.140191    3.634433
