25

N      3.513261    0.140328   -1.517127
C      2.898559   -0.790451   -1.196286
C      2.164081   -1.954731   -0.789402
C      2.861860   -3.166812   -0.658806
C      2.190411   -4.336462   -0.301150
C      0.816863   -4.307293   -0.079266
C      0.115724   -3.106659   -0.205694
C      0.779468   -1.914212   -0.546020
C     -0.019541   -0.690638   -0.663217
N     -0.993529   -0.529110   -1.531564
C     -1.570554    0.719481   -1.367272
C     -2.624912    1.250244   -2.137807
C     -3.114506    2.530635   -1.859414
C     -2.568444    3.284104   -0.825081
C     -1.523578    2.779622   -0.044499
C     -1.039278    1.493024   -0.333621
S      0.216077    0.605313    0.440043
H      3.934489   -3.207041   -0.844437
H      2.737520   -5.271790   -0.205859
H      0.287625   -5.219319    0.187729
H     -0.961103   -3.100135   -0.039125
H     -3.047001    0.659620   -2.944813
H     -3.926104    2.937397   -2.458247
H     -2.957277    4.279556   -0.620103
H     -1.097615    3.369104    0.761741
