49

C      1.588995    5.059934    4.847920
C      0.539368    5.779553    5.662534
C     -0.709153    5.559230    5.217313
C     -0.619433    4.675196    4.067129
C     -1.607069    4.150168    3.253593
N     -1.374311    3.326272    2.200494
C     -0.064070    3.053026    2.003781
C      1.003698    3.530428    2.765820
N      2.172970    3.025458    2.247149
C      1.852351    2.233083    1.171992
C      2.433673    1.413458    0.173448
C      1.360968    0.937283   -0.566884
N      0.186910    1.457075   -0.066708
C      0.502357    2.239972    1.006463
C      1.367129    0.079210   -1.718438
S      1.989007    0.761359   -3.173832
C      1.567680   -0.611293   -4.087581
C      0.993738   -1.593869   -3.314143
C      0.917610   -1.222537   -1.911039
C      0.403155   -2.112066   -0.904086
C      0.364970   -1.870632    0.498444
C     -0.177454   -2.795236    1.382676
C     -0.680757   -3.983909    0.892393
C     -0.624626   -4.254853   -0.479842
C     -0.080002   -3.361111   -1.438323
C     -0.013542   -3.708262   -2.870764
C     -0.484278   -4.942739   -3.392171
C     -0.415479   -5.290014   -4.749431
C      0.133878   -4.412358   -5.667506
C      0.612413   -3.185711   -5.228538
C      0.543196   -2.828532   -3.852899
C      0.726840    4.369359    3.833663
H      2.138164    4.339039    5.459728
H      2.273454    5.767555    4.372131
H      0.783237    6.403045    6.511432
H     -1.627875    5.953749    5.620369
H     -2.653627    4.381781    3.426528
H      3.118137    3.184528    2.570016
H      3.479671    1.193032    0.009618
H     -0.759428    1.307772   -0.395814
H      1.772581   -0.602845   -5.147647
H      0.780024   -0.969526    0.931731
H     -0.198832   -2.584454    2.448278
H     -1.109375   -4.716084    1.571977
H     -1.028215   -5.217740   -0.779003
H     -0.927707   -5.690918   -2.741534
H     -0.795183   -6.254221   -5.078796
H      0.188537   -4.679164   -6.719078
H      1.035836   -2.510452   -5.965537
