49

C     -1.149500   -4.133858   -0.967759
C     -2.378594   -4.969432   -0.611581
C     -3.334186   -4.213054   -0.026400
C     -2.883566   -2.868873    0.070051
C     -1.581134   -2.788642   -0.486818
C     -1.067533   -1.515465   -0.474359
S     -2.218690   -0.439131    0.243079
C     -3.391386   -1.683286    0.525643
C     -4.652022   -1.389881    1.147954
S     -5.385256   -2.450842    2.328283
C     -6.762692   -1.429615    2.571679
C     -6.615265   -0.356225    1.776097
O     -7.480375    0.687922    1.665032
C     -6.807779    1.445766    0.724088
C     -5.600192    0.883479    0.291309
C     -5.478255   -0.324444    1.006121
C      0.222779   -1.009036   -0.941472
C      1.405992   -1.701958   -0.707753
C      2.602281   -1.173137   -1.192621
C      2.597228    0.032144   -1.899760
C      1.360815    0.646428   -2.085612
N      0.183740    0.157462   -1.627223
C      3.835724    0.621280   -2.423205
C      4.319677    0.158995   -3.661135
C      5.483941    0.680642   -4.215166
C      6.185905    1.674431   -3.539745
C      5.737537    2.159751   -2.302673
C      6.461507    3.162321   -1.635954
C      6.036080    3.657787   -0.404580
C      4.880394    3.155851    0.177907
C      4.149302    2.159004   -0.472196
C      4.552236    1.636646   -1.724720
H     -0.972241   -4.142424   -2.046780
H     -0.269259   -4.497928   -0.431167
H     -2.460633   -6.027013   -0.814069
H     -4.298263   -4.570812    0.306548
H     -7.568856   -1.657900    3.253012
H     -7.314718    2.364035    0.457609
H     -4.926455    1.309091   -0.438855
H      1.412456   -2.627914   -0.143738
H      3.537237   -1.697640   -1.009168
H      1.279805    1.586270   -2.627058
H      3.779317   -0.615441   -4.203252
H      5.843580    0.314883   -5.173366
H      7.093938    2.070810   -3.989852
H      7.370630    3.568426   -2.074831
H      6.607854    4.433740    0.097361
H      4.542889    3.536595    1.138453
H      3.250643    1.790258    0.018885
