45

C     -4.169443   -3.814005   -1.799059
C     -3.148204   -4.897929   -1.911406
C     -1.935091   -4.373442   -1.698650
C     -0.674420   -5.043723   -1.712023
C      0.422055   -4.308383   -1.472237
C      0.407690   -2.843929   -1.193051
C     -0.790932   -2.146183   -1.165804
C     -0.707581   -0.709396   -0.878839
S     -2.088328    0.336915   -0.788593
C     -1.101959    1.704636   -0.442630
C     -1.243430    3.096105   -0.183706
C      0.036874    3.588179    0.007591
N      0.915973    2.534932   -0.113409
C      0.216511    1.386235   -0.395235
C      0.464717    0.009881   -0.638127
C      1.718657   -0.662144   -0.658027
C      2.945450   -0.144361   -0.450126
Si     4.265213   -1.450066   -0.583918
C      2.916025   -2.685449   -0.940631
C      1.686678   -2.119835   -0.940576
C      0.483435    4.949933    0.314889
C      1.673934    5.459395   -0.222505
C      2.092832    6.758641    0.077705
C      1.325871    7.562933    0.917634
C      0.138556    7.070929    1.454690
C     -0.280955    5.772585    1.153004
C     -2.020338   -2.937016   -1.431126
C     -3.325211   -2.610094   -1.490807
H     -4.875843   -4.017045   -0.988878
H     -4.713377   -3.682754   -2.739026
H     -3.370175   -5.930608   -2.130374
H     -0.620643   -6.107182   -1.910612
H      1.378518   -4.817560   -1.482729
H     -2.166064    3.659275   -0.153212
H      1.918744    2.568576   -0.001053
H      3.216811    0.871411   -0.229716
H      4.943663   -1.702637    0.709281
H      5.160143   -1.230612   -1.744798
H      3.182631   -3.713697   -1.114676
H      2.278005    4.860388   -0.898686
H      3.014371    7.144278   -0.350444
H      1.650526    8.573757    1.150164
H     -0.463208    7.695801    2.109405
H     -1.206693    5.404740    1.589139
H     -3.776525   -1.644329   -1.349630
