44

C     -0.470824    3.753695   -4.313823
O     -1.405209    3.179000   -3.409366
C     -1.080320    1.971210   -2.854785
C      0.119440    1.276634   -3.043769
C      0.325160    0.041529   -2.419294
O      1.441661   -0.741910   -2.538857
C      2.430401   -0.324608   -3.471820
C     -0.662782   -0.486724   -1.584907
C     -1.855902    0.211179   -1.384454
C     -2.931570   -0.349651   -0.532693
O     -4.101652   -0.179014   -0.855813
N     -2.516439   -0.875637    0.683096
C     -2.990678   -2.025035    1.271734
S     -3.952948   -3.193445    0.569932
N     -2.600969   -2.226849    2.569456
C     -2.179054   -1.207944    3.526089
C     -0.717899   -1.363811    3.951789
C      0.254320   -0.943004    2.877275
C      0.886591   -1.901165    2.075085
C      1.778224   -1.507232    1.077688
C      2.039883   -0.154745    0.869128
C      1.408391    0.807038    1.653829
C      0.520898    0.415785    2.655834
C     -2.068927    1.429881   -2.031438
H      0.469671    3.994368   -3.807014
H     -0.299855    3.099668   -5.175647
H     -0.897328    4.690583   -4.684681
H      0.889270    1.694832   -3.679101
H      2.016825   -0.251557   -4.482833
H      2.888758    0.620023   -3.161157
H      3.216980   -1.085456   -3.487162
H     -0.501787   -1.457307   -1.121835
H     -1.563435   -0.669152    0.952049
H     -2.984553   -3.079829    2.964543
H     -2.382474   -0.207125    3.130677
H     -2.819731   -1.343323    4.404975
H     -0.533023   -0.749217    4.842153
H     -0.518974   -2.400469    4.252497
H      0.689688   -2.961073    2.222690
H      2.268952   -2.254318    0.458306
H      2.731583    0.148214    0.087281
H      1.612516    1.861758    1.487945
H      0.043402    1.179333    3.266907
H     -3.009633    1.961256   -1.895144
