36

C      1.051824   -0.417548    1.819655
C      0.991701   -1.760071    1.210060
C      1.453044   -3.001082    1.585510
C      1.067618   -3.893734    0.554813
C      0.391088   -3.146974   -0.393016
C     -0.215575   -3.556906   -1.638948
N     -0.866850   -2.873405   -2.537378
C     -1.058827   -1.540079   -2.356726
S     -0.035246   -0.431424   -3.171542
C     -0.822768    0.929512   -2.500910
C     -1.889994    0.575905   -1.691336
C     -2.028127   -0.861825   -1.639945
C     -3.039973   -1.556683   -0.897228
N     -3.866617   -2.091156   -0.280673
C     -2.795474    1.515578   -0.934247
C     -2.420682    2.999476   -0.933935
C     -0.976625    3.261581   -0.507949
C      0.076294    3.108719   -1.614605
C     -0.330580    2.301270   -2.846598
O      0.349993   -1.844453    0.015099
H      1.588080   -0.442231    2.773161
H      1.568279    0.281772    1.154853
H      0.042831   -0.036073    2.004487
H      1.998083   -3.233877    2.489898
H      1.258224   -4.957164    0.509063
H     -0.107858   -4.632653   -1.864068
H     -2.835550    1.178747    0.110520
H     -3.812863    1.416201   -1.333608
H     -2.630503    3.456786   -1.907292
H     -3.086597    3.503785   -0.221598
H     -0.903847    4.283700   -0.114957
H     -0.717554    2.604794    0.332574
H      0.982530    2.675157   -1.171720
H      0.364378    4.111446   -1.956378
H      0.534986    2.249206   -3.519539
H     -1.107279    2.830169   -3.411960
