40

C     -0.297267    0.056306    1.039988
C     -1.747920    0.389384    1.378722
C     -2.517064    0.380662    0.272541
C     -1.673947    0.051868   -0.862020
C     -1.973316   -0.081849   -2.195713
N     -1.043713   -0.399135   -3.132480
C      0.241404   -0.596521   -2.755393
C      1.205923   -0.927699   -3.740909
Si     0.906261   -1.136484   -5.594069
C      2.751777   -1.530014   -5.815761
C      3.443156   -1.498901   -4.661977
C      2.600639   -1.169091   -3.520379
C      2.951397   -1.045422   -2.187392
C      4.188697   -1.205789   -1.619445
N      4.040042   -0.981691   -0.268442
C      2.724299   -0.681534    0.025820
C      2.020114   -0.713871   -1.153846
C      0.629271   -0.473145   -1.373544
C     -0.365049   -0.143795   -0.440508
C     -2.147188    0.663673    2.739025
C     -1.358280    0.665616    3.837740
C     -2.010592    0.976110    5.101227
C     -3.328894    1.225655    5.023443
Si    -3.937865    1.092320    3.256690
H      0.018734   -0.862914    1.543590
H      0.362767    0.892962    1.290588
H     -3.573259    0.574258    0.180352
H     -2.980503    0.061114   -2.572647
H      0.091581   -2.326283   -5.953297
H      0.571520    0.123714   -6.306965
H      3.143691   -1.748423   -6.796924
H      4.501785   -1.692689   -4.567823
H      5.155672   -1.455048   -2.034344
H      4.788120   -1.030064    0.411321
H      2.440087   -0.478374    1.047644
H     -0.295841    0.454428    3.830161
H     -1.447482    0.997608    6.026413
H     -3.991887    1.473630    5.837035
H     -4.871717   -0.045463    3.063431
H     -4.388235    2.398067    2.712468
