48

C      4.146590   -0.626478   -1.445983
C      3.558338   -1.594788   -2.427550
C      2.218262   -1.607201   -2.324382
C      1.221074   -2.376693   -3.070008
C     -0.080470   -2.137397   -2.766647
C     -0.518925   -1.167469   -1.732209
C     -1.877823   -0.957359   -1.510699
C     -2.314519   -0.038549   -0.526305
C     -3.715243    0.227222   -0.379739
N     -4.714868   -0.340424   -1.081807
S     -6.123498    0.359982   -0.570221
N     -5.539458    1.413936    0.562975
C     -4.203289    1.248457    0.604276
C     -3.285693    1.926390    1.451270
C     -3.798606    2.999127    2.325212
C     -2.988912    3.659324    3.165036
C     -1.610137    3.255342    3.291459
C     -0.788637    3.751107    4.236258
Si     0.828183    2.834440    4.267129
C      0.165277    1.756857    2.882047
C     -1.047554    2.166618    2.448156
C     -1.898845    1.557733    1.362121
C     -1.407157    0.674238    0.317057
C     -0.038802    0.474450    0.003470
C      0.409683   -0.428364   -0.978654
C      1.828868   -0.645302   -1.290238
C      2.927932   -0.074364   -0.770418
C      1.522379   -3.394272   -4.115266
N      0.597458   -3.610291   -5.060082
C      0.919673   -4.538021   -5.956943
N      2.043797   -5.246852   -5.981456
C      2.882445   -4.953521   -4.992587
N      2.685404   -4.047920   -4.038640
H      4.705249    0.162720   -1.957510
H      4.798337   -1.136219   -0.730499
H      4.155619   -2.183378   -3.106585
H     -0.877307   -2.673248   -3.277293
H     -2.612034   -1.490900   -2.112665
H     -4.847455    3.271154    2.251697
H     -3.372311    4.456213    3.793700
H     -1.018315    4.511308    4.966184
H      1.972212    3.666671    3.823434
H      1.033642    2.071457    5.521280
H      0.755413    0.916082    2.562509
H      0.714291    1.078529    0.495822
H      2.964371    0.674676    0.004388
H      0.196329   -4.735285   -6.740821
H      3.816214   -5.504544   -4.960316
