31

Si     2.259521   -3.101821   -0.937456
C      2.769919   -4.879029   -0.434395
C      2.143311   -5.266295    0.697445
C      1.256498   -4.292786    1.257026
C      0.461350   -4.355939    2.367843
S     -0.427984   -2.890711    2.561924
C      0.268090   -2.157093    1.149544
C      1.139793   -3.045107    0.582918
C     -0.105469   -0.824052    0.749713
C     -1.374103   -0.276215    0.743845
C     -1.386019    1.075263    0.287128
C     -0.126345    1.528659   -0.050569
S      1.056091    0.324049    0.232960
C      0.221265    2.833653   -0.534985
S     -0.303146    4.283081    0.249784
C      0.500226    5.305958   -0.877488
C      1.103166    4.519083   -1.795303
C      1.878338    4.801138   -2.945004
C      2.286129    3.640345   -3.611039
S      1.765488    2.114703   -2.909954
C      0.968496    3.137571   -1.644910
H      3.435982   -2.199316   -0.875413
H      1.531830   -3.123198   -2.231084
H      3.474935   -5.440017   -1.026023
H      2.291794   -6.238106    1.154051
H      0.338465   -5.165746    3.073043
H     -2.262107   -0.819544    1.044789
H     -2.282893    1.677599    0.203115
H      0.465785    6.382865   -0.792324
H      2.138583    5.792876   -3.294418
H      2.883398    3.587510   -4.511241
