24

Si    -1.569460   -0.384272    1.102083
C      0.323940   -0.623971    1.049015
C      0.802744   -0.473745   -0.211657
C     -0.233945   -0.179690   -1.145495
O     -0.153614    0.038005   -2.495504
C     -1.442400    0.272851   -2.883521
C     -2.128289    0.564162   -4.073884
C     -3.449887    0.669714   -3.671723
N     -3.555004    0.453495   -2.311117
C     -2.297398    0.207492   -1.832797
C     -1.543174   -0.081737   -0.707814
C      1.157610   -0.921189    2.158465
N      2.469700   -1.082513    2.086740
C      3.012908   -1.362686    3.322889
C      2.115789   -1.419104    4.361254
S      0.541547   -1.112126    3.774750
H     -1.960310    0.804207    1.903591
H     -2.279956   -1.629551    1.492126
H      1.840731   -0.560116   -0.507532
H     -1.727891    0.679986   -5.070004
H     -4.340643    0.884152   -4.248306
H     -4.392468    0.467320   -1.742442
H      4.081397   -1.518362    3.408466
H      2.306578   -1.620290    5.405272
