39

C     -0.707887    0.315332    6.832788
C     -1.728294   -0.426794    7.460472
C     -2.432786   -1.104027    6.437897
C     -3.469330   -1.947892    6.280490
S     -3.625201   -2.264099    4.585279
C     -2.275784   -1.239512    4.136624
C     -1.856315   -1.061192    2.759477
C     -2.434460   -1.647795    1.647910
C     -1.785043   -1.267552    0.435577
S     -2.038477   -1.659387   -1.241022
C     -0.734027   -0.666303   -1.651204
C     -0.258904   -0.452980   -3.110901
N     -0.772398   -0.991531   -4.253075
C     -0.045154   -0.532934   -5.321055
C      0.937782    0.305600   -4.833574
C      0.808081    0.362963   -3.414252
C      1.460518    1.005756   -2.329333
C      2.554472    1.844643   -2.619833
C      3.234878    2.502686   -1.597127
C      2.836741    2.335100   -0.275256
C      1.753739    1.507790    0.040410
C      1.034500    0.821196   -0.961164
C     -0.079658   -0.027272   -0.613086
C     -0.734328   -0.409202    0.621310
S     -0.530742   -0.054557    2.320301
C     -1.779856   -0.713972    5.287406
N     -0.726380    0.144144    5.451396
H      0.041974    0.962395    7.269795
H     -1.915904   -0.455667    8.525650
H     -4.131912   -2.393540    7.008044
H     -3.282795   -2.320581    1.676711
H     -1.560394   -1.624454   -4.296862
H     -0.286748   -0.839700   -6.329915
H      1.671123    0.821426   -5.439080
H      2.887661    1.994218   -3.643726
H      4.077466    3.147349   -1.833809
H      3.370748    2.850650    0.519444
H      1.491118    1.417133    1.087962
H     -0.134586    0.533695    4.726705
