34

C     -1.808629    0.844011   -0.045203
C     -1.163213    0.053892    1.060612
C     -1.970543   -0.575177    2.021939
C     -1.399753   -1.298703    3.070433
C     -0.015515   -1.398236    3.178072
C      0.800371   -0.783259    2.228996
C      0.238390   -0.073030    1.155987
C      1.135930    0.554812    0.187032
N      1.665812    1.750887    0.395030
C      2.404169    2.042972   -0.711736
C      2.347371    1.016876   -1.621254
N      1.547885    0.033448   -1.042273
C      1.286674   -1.210141   -1.695038
C      1.860193   -1.380809   -2.973215
C      1.647174   -2.570301   -3.680338
C      0.874252   -3.587635   -3.123818
C      0.314955   -3.421820   -1.859316
C      0.519337   -2.238647   -1.142051
C      2.683877   -0.320920   -3.566549
C      2.910087    0.820017   -2.903067
H     -1.433014    1.872294   -0.051912
H     -1.611556    0.375401   -1.014389
H     -2.895242    0.895927    0.082180
H     -3.054266   -0.495858    1.965990
H     -2.037659   -1.773013    3.812053
H      0.429885   -1.946192    4.004165
H      1.881869   -0.852971    2.327784
H      2.937551    2.980519   -0.798829
H      2.081278   -2.715667   -4.666556
H      0.710958   -4.510689   -3.674278
H     -0.284068   -4.218718   -1.423836
H      0.064175   -2.179115   -0.162805
H      3.110134   -0.481529   -4.551240
H      3.523544    1.600873   -3.342976
