37

O      1.031764   -1.181202   -4.776892
C      0.174324   -1.238099   -3.901209
C     -1.062857   -2.033583   -4.101809
C     -1.268755   -2.727280   -5.298873
C     -2.432209   -3.475878   -5.470188
C     -3.379617   -3.534293   -4.447550
C     -3.171044   -2.839987   -3.251794
C     -2.018880   -2.068083   -3.074056
N     -1.777537   -1.406522   -1.859616
C     -0.655557   -0.589374   -1.647558
C     -0.478280    0.082111   -0.431266
C      0.670254    0.855814   -0.194881
C      0.851234    1.562486    1.072638
C      1.983783    1.741651    1.849032
C      1.635144    2.518625    2.988026
C      2.336220    3.001443    4.099275
N      1.703873    3.742020    5.043693
C      0.387268    4.006047    4.891023
C     -0.394586    3.574903    3.829336
C      0.278600    2.814229    2.875997
N     -0.168588    2.232982    1.712889
C      1.656044    0.933218   -1.188299
C      1.500204    0.255883   -2.399087
C      0.350822   -0.505944   -2.621553
H     -0.524292   -2.687119   -6.090833
H     -2.595936   -4.018942   -6.397913
H     -4.281221   -4.128131   -4.579383
H     -3.915021   -2.911986   -2.463145
H     -2.567505   -1.284050   -1.239952
H     -1.229891   -0.020974    0.346748
H      2.965844    1.343364    1.627200
H      3.391830    2.815004    4.258924
H     -0.049257    4.605909    5.685846
H     -1.446410    3.816534    3.756325
H     -1.113171    2.309701    1.364277
H      2.553947    1.527355   -1.030788
H      2.272764    0.320258   -3.162130
