29

C      0.298195    1.979060    4.331311
C      1.462046    1.497128    4.904330
N      2.351963    0.723803    4.249773
C      2.059121    0.419984    2.961204
C      0.920161    0.849733    2.277180
C      0.028478    1.649503    3.003816
C      0.670243    0.484659    0.874875
C      1.639390    0.699980   -0.108195
C      1.409543    0.356227   -1.446920
C      0.179500   -0.224451   -1.845141
C     -0.782138   -0.436054   -0.858893
C     -0.553458   -0.089412    0.490175
S     -2.203194   -1.144703   -1.507536
C     -1.572018   -1.180665   -3.101182
C     -2.214364   -1.659719   -4.249678
C     -1.494844   -1.581384   -5.426089
N     -0.248759   -1.084328   -5.521344
C      0.359806   -0.625455   -4.403196
C     -0.280662   -0.656981   -3.151808
H     -0.382966    2.600271    4.901923
H      1.716904    1.727476    5.934800
H      2.796811   -0.215622    2.476837
H     -0.876224    2.031698    2.536552
H      2.593842    1.156272    0.151806
H      2.188934    0.543840   -2.182025
H     -1.327026   -0.283008    1.230434
H     -3.216736   -2.068602   -4.220815
H     -1.923036   -1.932396   -6.361442
H      1.363372   -0.236499   -4.537968
