38

C      1.093836    1.772007    1.048385
C      0.496847    0.642546    0.165237
C      0.769590    0.439206   -1.218387
C      0.181121   -0.624341   -1.967589
C      0.452450   -0.849471   -3.377401
S     -0.836131   -0.772092   -4.523547
C      0.203439   -1.087216   -5.850850
C      1.504293   -1.223657   -5.442222
N      2.530068   -1.465605   -6.304861
C      3.711508   -1.548798   -5.632808
C      3.864529   -1.404235   -4.248086
N      2.855260   -1.160142   -3.367659
C      1.654881   -1.076724   -4.013789
C     -0.663009   -1.442939   -1.187749
C     -1.358187   -2.573548   -1.534976
O     -2.044238   -3.052767   -0.448910
C     -1.777166   -2.228512    0.611938
C     -0.931710   -1.236195    0.205671
C     -0.379127   -0.202775    0.922701
C     -0.401802    0.291189    2.243627
N     -0.968189    0.019831    3.435049
C     -0.495362    0.986485    4.313660
C     -0.657812    1.316613    5.686209
C      0.099122    2.428440    5.993179
S      0.992657    3.074002    4.669799
C      0.358899    1.839369    3.643129
C      0.415014    1.386930    2.312968
H      2.180388    1.678481    1.112461
H      0.777726    2.753020    0.686319
H      1.456243    1.120117   -1.720408
H     -0.184123   -1.147412   -6.857386
H      4.578254   -1.743342   -6.258567
H      4.850130   -1.486839   -3.798081
H     -1.477248   -3.149148   -2.441889
H     -2.253247   -2.498607    1.542680
H     -1.609775   -0.719332    3.691747
H     -1.277928    0.785937    6.396494
H      0.180509    2.915368    6.955397
