42

O      3.411736    0.973285   -0.309172
C      2.383125    0.467046    0.123113
N      1.095294    0.764401   -0.258973
C      0.660015    1.643368   -1.272717
C      1.516561    2.308906   -2.149550
C      0.991774    3.139835   -3.140978
C     -0.386144    3.307798   -3.259134
C     -1.250116    2.645860   -2.384595
C     -0.744441    1.805154   -1.382633
N     -1.578640    1.136003   -0.446906
C     -2.712008    0.379235   -1.035490
C     -4.066895    1.023192   -0.702128
O     -4.305309    1.159177    0.707171
C     -3.111675    1.406766    1.467850
C     -1.985651    2.054526    0.648059
C      2.494579   -0.553180    1.204946
C      1.581696   -1.628709    1.305390
C      1.708035   -2.574414    2.328869
C      2.750379   -2.421652    3.217779
C      3.648520   -1.384958    3.113338
C      3.553561   -0.437335    2.117221
O      4.599320   -1.424396    4.084752
C      4.204860   -2.609903    4.805690
O      3.025047   -3.242478    4.266235
H      0.311650    0.364644    0.248783
H      2.593787    2.192737   -2.088247
H      1.664710    3.655338   -3.821781
H     -0.787883    3.959430   -4.030849
H     -2.317771    2.808401   -2.487877
H     -2.683956   -0.622116   -0.588514
H     -2.606282    0.243231   -2.118353
H     -4.148796    2.018920   -1.151404
H     -4.880002    0.415997   -1.112705
H     -2.779525    0.447798    1.882361
H     -3.386862    2.051085    2.308751
H     -2.343591    3.010713    0.244594
H     -1.127058    2.253416    1.299616
H      0.786487   -1.754069    0.574263
H      1.018447   -3.406800    2.415996
H      4.274771    0.370493    2.045670
H      4.009750   -2.337002    5.849146
H      5.031826   -3.328884    4.778662
