40

C     -0.213321   -2.212070   -2.615145
C      0.842926   -1.165337   -2.185356
C      2.254726   -1.801261   -2.229026
C      0.806208    0.000803   -3.196513
C      1.078000   -0.205880   -4.565333
C      1.037025    0.848347   -5.479168
C      0.715598    2.128225   -5.045385
C      0.441166    2.351488   -3.697392
C      0.503066    1.303181   -2.767743
N      0.165493    1.545310   -1.430469
C      0.252020    0.585524   -0.414682
C     -0.057753    0.949453    0.907249
C     -0.026547    0.019409    1.958955
C     -0.333375    0.395173    3.353158
N     -1.255145   -0.406292    3.949578
C     -1.588328   -0.121990    5.216598
N     -1.082467    0.877011    5.949914
C     -0.159701    1.642811    5.333407
C      0.258519    1.450181    4.031734
C      1.259255    2.298696    3.477815
N      2.060825    3.016705    3.043663
C      0.279561   -1.309097    1.635784
C      0.558488   -1.688371    0.319458
C      0.545986   -0.749042   -0.727928
H     -0.214761   -3.091336   -1.961343
H     -1.223708   -1.784908   -2.591435
H     -0.038985   -2.582882   -3.631358
H      2.341815   -2.665785   -1.561722
H      3.022090   -1.076924   -1.928314
H      2.518145   -2.160063   -3.230073
H      1.321325   -1.197784   -4.938387
H      1.248767    0.665770   -6.529417
H      0.670817    2.950476   -5.754003
H      0.173922    3.353789   -3.373894
H      0.226533    2.510933   -1.134782
H     -0.343544    1.980452    1.104473
H     -2.331018   -0.757285    5.687243
H      0.247486    2.442685    5.948696
H      0.291739   -2.069804    2.415266
H      0.778362   -2.735402    0.124337
