45

C      1.105439    1.395988   -2.897936
O      1.808054    2.258213   -2.117564
C      1.540064    1.942269   -0.818681
C      0.703450    0.852288   -0.738131
C      0.384608    0.531351   -2.111575
C     -0.517675   -0.434031   -2.563480
C     -1.122188   -1.043469   -1.443261
C     -0.815766   -0.722394   -0.051367
C     -1.463663   -1.326829    1.038164
C     -2.442380   -2.288002    0.966743
O     -2.808107   -2.670372    2.217728
C     -2.062041   -1.941525    3.095585
C     -1.240103   -1.062541    2.427663
C     -0.291373   -0.145209    2.973964
C     -0.038542    0.193646    4.375292
C     -0.806388   -0.174563    5.498471
N     -0.539444    0.130097    6.795315
C      0.555437    0.869874    7.022891
C      1.377585    1.328297    6.013896
C      1.071753    0.999852    4.686030
C      1.879073    1.474453    3.658481
C      1.579416    1.206853    2.318297
C      0.476846    0.441997    1.898132
C      0.169623    0.227258    0.440349
C     -0.802030   -0.741184   -3.955377
N      0.234238   -0.732464   -4.862854
C      0.041914   -1.030688   -6.185818
C     -1.153770   -1.369513   -6.805632
C     -2.250259   -1.391966   -5.925559
N     -3.513017   -1.686324   -6.272971
S     -4.423732   -1.566472   -4.892302
N     -3.258347   -1.147263   -3.790092
C     -2.091718   -1.074673   -4.459535
H      1.210250    1.548141   -3.963231
H      2.005817    2.613726   -0.115241
H     -1.868752   -1.815188   -1.631986
H     -2.956295   -2.799966    0.165492
H     -2.242545   -2.207889    4.124613
H     -1.734602   -0.720541    5.401203
H      0.757316    1.101445    8.064272
H      2.239841    1.937698    6.264827
H      2.760440    2.074937    3.879533
H      2.298200    1.585356    1.602054
H      0.956016   -0.984790   -6.778365
H     -1.235981   -1.593358   -7.859301
