45

C      3.344299   -0.193944   -5.966265
C      3.126457    0.619454   -4.700404
C      2.629070   -0.256315   -3.550690
C      2.410844    0.565945   -2.278959
C      1.911805   -0.313607   -1.128318
C      1.640684    0.491774    0.142515
N      2.844491    1.015559    0.746378
C      2.769726    0.948102    2.124392
O      3.560397    1.439279    2.906914
N      1.640546    0.225554    2.458284
C      1.045938   -0.366480    1.282693
C     -0.482708   -0.341184    1.309050
C     -1.115590   -1.172392    2.432060
C     -0.764083   -2.663638    2.436955
C     -1.064963   -3.423773    1.139674
C     -2.525401   -3.386648    0.698749
C     -3.444457   -4.031154    1.696838
O     -4.248853   -3.455522    2.409589
O     -3.305022   -5.368232    1.750630
H      4.090542   -0.978439   -5.804941
H      2.413061   -0.667195   -6.293623
H      3.699796    0.451842   -6.775272
H      4.068031    1.104937   -4.418542
H      2.399762    1.414429   -4.904435
H      3.357629   -1.052064   -3.353082
H      1.689509   -0.742901   -3.839691
H      1.680648    1.360019   -2.476883
H      3.351279    1.053419   -1.996469
H      2.652534   -1.097591   -0.925480
H      0.987778   -0.816505   -1.439017
H      0.995697    1.352995   -0.073508
H      3.457344    1.708732    0.337708
H      1.563264   -0.128309    3.402740
H      1.426575   -1.392530    1.219615
H     -0.869465   -0.681957    0.341754
H     -0.827458    0.694573    1.427767
H     -0.825564   -0.747788    3.401171
H     -2.204715   -1.057823    2.375226
H      0.300514   -2.784178    2.670417
H     -1.301028   -3.140163    3.266582
H     -0.440843   -3.029225    0.329580
H     -0.755854   -4.467365    1.279473
H     -2.644935   -3.910158   -0.257181
H     -2.864593   -2.359996    0.525971
H     -3.953726   -5.649669    2.429778
