34

C      4.732680   -1.317783    0.191797
O      3.661330   -0.865550   -0.637092
C      3.851420    0.373365   -1.170498
O      4.862909    1.050732   -1.026726
C      2.676180    0.793541   -2.010287
N      1.439469    0.859256   -1.249115
C      0.400298   -0.019411   -1.384557
C     -0.628218    0.370744   -0.541360
C     -1.888925   -0.366400   -0.431319
O     -1.903879   -1.595044   -0.492409
C     -3.102077    0.414758   -0.282480
C     -4.375267    0.017803    0.091584
C     -5.201182    1.165540    0.033828
C     -4.393759    2.192987   -0.389467
O     -3.127584    1.749791   -0.592620
C     -0.150897    1.522889    0.173643
C     -0.676646    2.336762    1.203324
C      0.066237    3.414898    1.695946
C      1.329512    3.691187    1.188423
C      1.887018    2.896449    0.184543
C      1.134176    1.814076   -0.302449
H      4.883944   -0.632730    1.031943
H      5.650836   -1.422390   -0.394489
H      4.461750   -2.299393    0.590160
H      2.553470    0.093824   -2.843342
H      2.857381    1.788438   -2.430880
H      0.455579   -0.858635   -2.067699
H     -4.659665   -0.988764    0.368893
H     -6.255751    1.233348    0.261801
H     -4.558577    3.242659   -0.590894
H     -1.659546    2.137276    1.620805
H     -0.349910    4.038603    2.483094
H      1.896587    4.531623    1.582218
H      2.882419    3.115957   -0.191169
