37

C      5.110662   -0.803723   -1.265607
C      5.878622   -1.889830   -0.534469
C      5.235980   -2.254008    0.591090
C      4.046002   -1.470208    0.685269
C      3.937379   -0.622391   -0.365677
C      2.759249    0.135705   -0.248762
N      2.257810    1.103028   -1.079513
C      1.097427    1.502978   -0.491648
C      0.123148    2.448282   -0.831934
C     -0.819367    2.397534    0.156951
C     -0.420289    1.323431    1.236756
C      0.849648    0.826194    0.674780
C      1.900870   -0.040969    0.831441
Si     2.649143   -1.373647    1.919034
C     -1.993320    3.230326    0.161675
S     -2.309347    4.376272   -1.133338
C     -3.779936    4.939504   -0.455090
C     -4.016770    4.280784    0.707053
Si    -5.376537    4.322271    2.007161
C     -4.423605    2.972617    2.951152
C     -3.287663    2.622343    2.308417
C     -3.032297    3.318536    1.075313
H      5.706696    0.110123   -1.343686
H      4.809429   -1.141981   -2.261249
H      6.812919   -2.304248   -0.882793
H      5.557516   -3.002859    1.298464
H      2.663397    1.443398   -1.941133
H      0.147991    3.073445   -1.710925
H     -0.269618    1.793730    2.212771
H     -1.172997    0.531618    1.291199
H      3.096699   -0.882832    3.249288
H      1.848628   -2.625477    1.972555
H     -4.362126    5.705211   -0.949380
H     -5.431062    5.583858    2.786863
H     -6.687523    3.816904    1.529213
H     -4.797959    2.576719    3.881476
H     -2.622319    1.867411    2.704489
