44

C     -1.724784    1.139894    3.518623
N     -0.648229    0.472963    4.088226
C      0.167088   -0.053256    3.107194
C     -0.434119    0.303954    1.941662
C     -1.618520    1.037025    2.147093
C     -2.485528    1.569512    1.168722
C     -2.056926    1.307724   -0.172229
C     -0.872815    0.569926   -0.425100
N     -0.238216    0.170300   -1.593510
C      0.907466   -0.538169   -1.261245
C      0.994971   -0.588247    0.092824
O      2.096247   -1.268402    0.492208
C      2.703142   -1.648125   -0.672792
C      3.887576   -2.381516   -0.722287
C      4.391747   -2.697968   -1.988927
C      3.738334   -2.297640   -3.165880
C      4.253476   -2.621093   -4.430265
C      3.596574   -2.218878   -5.596326
C      2.413767   -1.486651   -5.519581
C      1.879057   -1.151078   -4.275851
C      2.532826   -1.551222   -3.092905
C      2.016784   -1.227141   -1.811678
C     -0.090378    0.084556    0.601816
C     -3.700055    2.314354    1.478973
C     -3.877523    3.636348    1.054904
C     -5.053407    4.319644    1.359614
C     -6.030135    3.655997    2.082218
N     -5.910075    2.381834    2.508051
C     -4.753811    1.745579    2.194827
H     -2.452099    1.623222    4.157364
H     -0.481776    0.393110    5.082909
H      1.066581   -0.605015    3.343500
H     -2.655592    1.668711   -1.005889
H     -0.536011    0.349839   -2.542663
H      4.391461   -2.690479    0.186072
H      5.316082   -3.270506   -2.046807
H      5.175316   -3.192127   -4.519188
H      4.011194   -2.479314   -6.567142
H      1.907758   -1.177271   -6.430580
H      0.956838   -0.580676   -4.239181
H     -3.094198    4.142728    0.495844
H     -5.200806    5.345787    1.042792
H     -6.962861    4.146487    2.345189
H     -4.697654    0.717719    2.546267
