38

C      3.736375    0.081935   -5.440515
C      2.754493   -0.145925   -4.301701
N      1.428073    0.308689   -4.701734
C      0.336348    0.136428   -3.847625
C     -0.954408    0.277982   -4.380710
C     -2.095084    0.190085   -3.574090
C     -1.972155   -0.012491   -2.203845
C     -0.687680   -0.114994   -1.656811
O     -0.483995   -0.291130   -0.305217
C      0.452160   -0.031008   -2.464046
N     -3.135698   -0.090785   -1.419022
C     -2.957033   -0.250747   -0.148844
C     -1.617012   -0.356672    0.492466
C     -1.492250   -0.511980    1.815867
C     -4.131658   -0.336758    0.744510
C     -4.013113   -0.491334    2.066893
C     -2.677227   -0.585359    2.704918
N     -2.515182   -0.726304    3.978265
C     -3.556119   -0.818522    5.033750
C     -2.890436   -0.944790    6.389964
H      4.740196   -0.242052   -5.148985
H      3.782694    1.141823   -5.712411
H      3.441338   -0.480195   -6.332950
H      3.104034    0.412726   -3.426506
H      2.732948   -1.212967   -4.051952
H      1.198647    0.068084   -5.664569
H     -1.085743    0.463814   -5.444909
H     -3.080802    0.292532   -4.019926
H      1.426457   -0.091925   -1.991407
H     -0.495348   -0.583294    2.240888
H     -5.101614   -0.264218    0.259884
H     -4.913495   -0.546425    2.670389
H     -1.552166   -0.783950    4.326536
H     -4.165992    0.088568    4.983628
H     -4.171627   -1.697437    4.819499
H     -2.255548   -0.078172    6.605567
H     -2.263070   -1.841430    6.445207
H     -3.647689   -1.013266    7.177390
