33

C     -0.516554    2.420558    2.161590
C     -1.998738    2.459513    1.910427
C     -3.158076    3.003361    2.485002
C     -4.215251    2.609385    1.674763
N     -3.725075    1.844676    0.630379
C     -2.388488    1.767429    0.791106
C     -1.262868    1.194810    0.167099
C     -0.118133    1.550425    0.943442
C      1.206569    1.139982    0.610220
C      1.508876    0.337111   -0.536742
C      2.853062   -0.088737   -0.897208
C      3.445288    0.271978   -2.113290
C      4.739594   -0.147289   -2.415810
C      5.414243   -0.918502   -1.485264
N      4.889110   -1.287583   -0.298928
C      3.628206   -0.865181   -0.035897
C      0.347737    0.007344   -1.269202
C      0.222998   -0.764810   -2.396412
O     -1.093199   -0.831686   -2.772823
C     -1.824087   -0.105582   -1.869831
C     -0.982460    0.418756   -0.930677
H     -0.064873    3.413193    2.094683
H     -0.274418    1.912463    3.098089
H     -3.236524    3.609300    3.377951
H     -5.276369    2.805987    1.749837
H     -4.274978    1.426891   -0.108619
H      2.023609    1.464501    1.255161
H      2.905622    0.890541   -2.827063
H      5.210519    0.126083   -3.353363
H      6.425079   -1.268497   -1.674140
H      3.240363   -1.189421    0.927154
H      0.910178   -1.312968   -3.025614
H     -2.889031   -0.080731   -2.046665
