35

C     -2.442968    1.600568    4.163440
C     -3.576400    2.029705    5.100035
C     -4.771690    1.995333    4.470683
C     -4.580051    1.568136    3.134373
C     -5.389472    1.351380    2.065022
S     -4.436076    0.826340    0.731677
C     -2.935677    0.899562    1.621301
C     -3.203511    1.320636    2.905736
C     -1.674954    0.548285    0.996502
C     -1.460631    0.135060   -0.305288
C     -0.092957   -0.133813   -0.603829
N      0.355300   -0.552419   -1.819644
C      1.682167   -0.757168   -1.919772
C      2.591060   -0.570719   -0.883424
C      3.972116   -0.796246   -1.030108
O      4.608892   -1.215045   -2.162830
C      5.931359   -1.301990   -1.866740
C      6.159866   -0.945238   -0.557978
C      4.894739   -0.614601   -0.003858
C      4.433539   -0.182191    1.253334
C      3.060719    0.052892    1.435766
C      2.142082   -0.138145    0.379446
C      0.740134    0.081249    0.495705
S     -0.187751    0.603521    1.848205
H     -1.948322    0.705423    4.550581
H     -1.726077    2.416349    4.035338
H     -3.421232    2.319229    6.128640
H     -5.726383    2.250958    4.908216
H     -6.460612    1.463869    1.976630
H     -2.243738    0.020329   -1.043552
H      2.015543   -1.090983   -2.899994
H      6.570075   -1.625762   -2.676962
H      7.120290   -0.925568   -0.063038
H      5.127124   -0.030646    2.075821
H      2.719649    0.386906    2.413588
