22

N      1.719231   -3.439146    0.033655
C      0.917096   -2.308399    0.308008
C      0.451890   -1.555692   -0.777630
C     -0.208544   -0.330664   -0.590950
C     -0.706752    0.408377   -1.676686
C     -1.350017    1.630222   -1.473115
C     -1.500068    2.130114   -0.183076
C     -1.007105    1.408999    0.905554
C     -0.360684    0.176189    0.717050
C      0.152180   -0.557207    1.799093
C      0.765295   -1.802646    1.613163
N      1.406349   -2.396719    2.723749
H      1.752383   -4.088753    0.808699
H      2.661096   -3.144371   -0.214789
H      0.605110   -1.940928   -1.783451
H     -0.597767    0.033451   -2.691948
H     -1.733104    2.190062   -2.322199
H     -2.000619    3.081279   -0.022290
H     -1.132654    1.815429    1.906682
H      0.070926   -0.161289    2.809146
H      1.543402   -3.392274    2.605984
H      2.299450   -1.939552    2.894304
