34

Si     2.369323    1.861086   -1.240943
C      0.960352    0.763550   -1.799451
C      0.335404    0.184575   -0.751730
C     -0.826662   -0.734784   -0.846640
C     -1.367791   -1.227039    0.297320
C     -0.799839   -0.850771    1.554155
O     -1.242935   -1.278587    2.780907
C     -0.423355   -0.683787    3.698743
C     -0.376445   -0.730452    5.105347
C      0.663950    0.066339    5.538924
S      1.544764    0.837510    4.265595
C      0.511674    0.091837    3.092047
C      0.285659   -0.003564    1.707120
C      0.914336    0.563697    0.571494
C      1.961056    1.407066    0.524177
C     -1.413781   -1.167906   -2.068348
S     -2.967350   -0.654362   -2.653234
C     -2.852956   -1.599261   -4.110422
C     -1.668181   -2.242268   -4.086922
C     -0.881610   -3.138773   -4.850598
C      0.309381   -3.364020   -4.126452
N      0.325159   -2.653043   -2.927866
C     -0.880987   -2.012734   -2.980709
H      2.122037    3.293153   -1.530693
H      3.687228    1.331427   -1.665195
H      0.722009    0.660519   -2.846943
H     -2.212720   -1.907821    0.301187
H     -1.041747   -1.294017    5.744282
H      0.968414    0.246868    6.561139
H      2.521281    1.809327    1.352720
H     -3.644158   -1.603586   -4.845737
H     -1.124036   -3.581249   -5.807702
H      1.159082   -3.986811   -4.375638
H      1.023008   -2.599517   -2.195090
