39

Si     3.666019   -2.478837    2.844174
C      3.516691   -0.904758    3.834434
C      2.635599   -0.056760    3.269673
C      2.271563    1.243116    3.754971
C      2.667465    2.003079    4.874068
C      1.955418    3.182102    4.790407
O      1.148951    3.191799    3.691519
C      1.344187    2.003862    3.058239
C      0.733406    1.525478    1.857709
O     -0.183669    2.158862    1.081385
C     -0.469591    1.315725    0.047853
C     -1.365618    1.592773   -0.974910
C     -1.503083    0.589186   -1.927488
N     -0.824048   -0.590963   -1.846741
C      0.051316   -0.826408   -0.833720
C      0.255162    0.132699    0.154285
C      1.036862    0.274984    1.328144
C      1.993185   -0.565596    2.003260
C      2.406637   -1.794730    1.636840
C     -2.415599    0.685671   -3.074806
C     -3.101879   -0.445947   -3.596922
C     -3.987744   -0.412536   -4.700048
C     -4.276135    0.762337   -5.405475
C     -3.620901    1.932239   -4.957280
N     -3.757983    3.149611   -5.504905
S     -2.777901    4.168031   -4.640146
N     -2.145707    3.118246   -3.525822
C     -2.671454    1.903987   -3.774570
H      3.150928   -3.659445    3.576406
H      5.003480   -2.634928    2.226184
H      4.088607   -0.749505    4.735292
H      3.375418    1.741241    5.646837
H      1.910189    4.072278    5.402563
H     -1.911212    2.525502   -1.000491
H      0.553364   -1.785248   -0.857498
H      2.105608   -2.374395    0.781475
H     -2.937413   -1.412814   -3.114312
H     -4.462116   -1.342696   -5.013815
H     -4.953890    0.779696   -6.250263
