49

C      2.437374    4.759642    4.507443
O      1.119181    4.229003    4.563643
C      0.536249    3.889314    3.373974
C      1.133782    3.974761    2.113515
C      0.424416    3.590692    0.970578
C     -0.883647    3.118027    1.096619
S     -1.798808    2.620037   -0.341505
O     -3.065461    3.317887   -0.303054
O     -0.926149    2.708679   -1.494155
N     -2.078540    0.963909   -0.042732
C     -0.881002    0.092764    0.075498
C     -0.910211   -1.102525   -0.878934
C     -1.328230   -0.659393   -2.293465
N     -1.306129   -1.739998   -3.315748
C     -0.082470   -2.558948   -3.338464
C      1.148489   -1.806497   -3.847325
C      0.900582   -1.237478   -5.240806
C     -0.403325   -0.447794   -5.291840
C     -1.565980   -1.240731   -4.684807
C     -2.739786   -0.023323   -2.224660
C     -3.180046    0.358739   -0.817683
C     -1.493537    3.034589    2.349301
C     -0.777088    3.418588    3.483630
H      3.142137    4.022268    4.109265
H      2.746188    4.996611    5.530135
H      2.465524    5.688028    3.927410
H      2.148439    4.337788    1.985424
H      0.897152    3.666234   -0.006271
H     -0.819066   -0.264173    1.109769
H      0.035413    0.663078   -0.112521
H      0.093435   -1.539726   -0.869123
H     -1.595063   -1.874300   -0.505109
H     -0.622018    0.126136   -2.590126
H      0.119996   -3.007770   -2.361274
H     -0.261129   -3.422591   -3.994137
H      1.413058   -0.997077   -3.156902
H      2.007305   -2.486690   -3.879709
H      1.739183   -0.600709   -5.543193
H      0.849904   -2.062235   -5.962647
H     -0.636208   -0.197840   -6.333456
H     -0.277638    0.504940   -4.764705
H     -1.775245   -2.106217   -5.328122
H     -2.479517   -0.638192   -4.726269
H     -3.501525   -0.705960   -2.623759
H     -2.757967    0.863557   -2.871173
H     -4.048037    1.025433   -0.856821
H     -3.529650   -0.529340   -0.275475
H     -2.515950    2.676393    2.445313
H     -1.245693    3.356180    4.463344
