26

C      2.437566    3.112025    1.211942
O      2.559843    1.696636    1.050033
C      1.337929    1.152407    0.748191
C      0.505586    0.770705    1.794525
C     -0.725401    0.178698    1.514706
C     -1.130448   -0.062234    0.190561
C     -2.366127   -0.677967   -0.068735
C     -2.775322   -0.947322   -1.374247
C     -1.952887   -0.606686   -2.439983
C     -0.722416    0.007783   -2.200150
C     -0.284032    0.302602   -0.887016
C      0.954558    0.921675   -0.578509
C      1.922744    1.287010   -1.630137
N      1.794260    2.214608   -2.533230
O      0.594336    2.919021   -2.384215
H      3.440051    3.516374    1.380773
H      1.822593    3.354748    2.085365
H      2.027237    3.586927    0.314177
H      0.812942    0.927454    2.824574
H     -1.366573   -0.108989    2.345953
H     -3.023727   -0.959399    0.751357
H     -3.734477   -1.424720   -1.556626
H     -2.265237   -0.814178   -3.460131
H     -0.104461    0.267927   -3.057905
H      2.867872    0.717610   -1.617254
H      0.636105    3.559859   -3.117687
