46

C     -5.860675    3.550138   -2.030374
C     -5.015546    4.636947   -1.940316
C     -3.795718    4.093574   -1.552685
C     -2.556188    4.711124   -1.301316
C     -2.221989    6.024164   -1.373103
O     -0.900595    6.118394   -1.036029
C     -0.452735    4.846938   -0.763055
C     -1.458471    3.914064   -0.914910
C     -1.411223    2.489912   -0.728945
C     -2.705403    1.936635   -1.002258
C     -2.859346    0.560363   -0.874669
N     -1.877080   -0.288849   -0.512029
C     -0.661498    0.209238   -0.252639
C      0.313094   -0.707626    0.117127
C      1.626818   -0.331733    0.419702
C      1.956133    1.017744    0.337592
C      0.989944    1.957442   -0.032474
C     -0.342835    1.587187   -0.337479
C      2.631343   -1.334234    0.804733
C      3.369307   -1.959599   -0.217145
C      4.338881   -2.911942    0.079028
C      4.587788   -3.255895    1.404388
C      3.872068   -2.656515    2.451193
C      4.136554   -3.018184    3.782863
C      3.435506   -2.437105    4.838303
C      2.458857   -1.486089    4.575966
C      2.184561   -1.115452    3.257592
C      2.879308   -1.684741    2.163845
C     -3.841458    2.722145   -1.397418
N     -5.154209    2.408857   -1.705012
H     -6.907111    3.483420   -2.297895
H     -5.274064    5.668973   -2.134294
H     -2.723195    6.948890   -1.617822
H      0.588054    4.823933   -0.485457
H     -3.806527    0.064863   -1.063615
H      0.035529   -1.759525    0.175099
H      2.968045    1.349059    0.564048
H      1.314401    2.987191   -0.074333
H      3.184432   -1.699578   -1.258065
H      4.899759   -3.385931   -0.722022
H      5.349981   -4.002982    1.616103
H      4.896737   -3.762904    4.009469
H      3.651984   -2.729391    5.862250
H      1.905995   -1.030515    5.393238
H      1.409894   -0.369600    3.090773
H     -5.547668    1.478019   -1.695068
