43

Si    -2.200409    0.260545    2.795488
C     -1.839473    2.069984    3.222300
C     -0.821806    2.586887    2.500118
C     -0.247666    1.620058    1.561337
C     -0.824490    0.327215    1.552237
C     -0.366496   -0.683079    0.688950
N     -0.812551   -1.958224    0.446869
C     -0.034253   -2.587908   -0.503134
C     -0.216436   -3.851829   -1.071333
C      0.743221   -4.307708   -1.972497
C      1.902684   -3.574507   -2.231304
C      2.897889   -4.108690   -3.065972
C      4.106725   -3.441481   -3.259094
C      4.347228   -2.244660   -2.596983
C      3.361760   -1.691047   -1.776311
C      2.100440   -2.306158   -1.619895
C      1.044636   -1.746394   -0.819341
C      0.710314   -0.521005   -0.180402
C      1.251997    0.820601   -0.291246
C      2.100067    1.294193   -1.249928
S      2.450748    2.954278   -0.955226
C      1.365548    3.020761    0.382433
C      0.749266    1.809381    0.609284
C     -2.581501    2.777213    4.202669
C     -3.954918    2.860908    4.376710
C     -4.334379    3.663538    5.491917
C     -3.241797    4.176701    6.148826
S     -1.774054    3.695711    5.423276
H     -1.916196   -0.683160    3.907235
H     -3.529654    0.065576    2.157925
H     -0.455827    3.600914    2.578317
H     -1.622970   -2.379074    0.876363
H     -1.078775   -4.464912   -0.828267
H      0.598250   -5.283975   -2.431505
H      2.748207   -5.067666   -3.557587
H      4.871319   -3.874659   -3.898320
H      5.307247   -1.746108   -2.702836
H      3.617933   -0.802272   -1.210665
H      2.519133    0.813422   -2.119402
H      1.228662    3.962262    0.895084
H     -4.669339    2.375401    3.722246
H     -5.356847    3.855986    5.792697
H     -3.232492    4.815357    7.021306
