43

C     -2.559207    2.934542    0.641423
C     -3.111240    3.559261   -0.452194
C     -3.980425    4.618036   -0.293636
C     -4.334895    5.097289    0.958840
C     -3.783517    4.472936    2.041739
C     -2.897719    3.394572    1.896346
C     -2.387334    2.822240    3.038875
C     -1.509408    1.754772    2.927594
C     -1.154308    1.275346    1.689971
C     -1.673833    1.857711    0.521559
C     -1.307554    1.361649   -0.793624
C     -0.467146    0.335330   -1.011916
B      0.143925   -0.355652    0.212361
C      1.136040   -1.561446    0.099939
N      1.507876   -2.062556   -1.172818
C      0.614611   -2.997806   -1.826441
C      1.235793   -3.607454   -3.060602
O      2.039914   -2.665386   -3.735673
C      3.158951   -2.461745   -2.941554
C      2.751884   -1.614772   -1.745346
C      1.564548   -2.033982    1.259186
C      1.155501   -1.487220    2.547174
C      0.313919   -0.462358    2.693139
N     -0.260766    0.188810    1.574791
H     -2.893754    3.255829   -1.455491
H     -4.413256    5.107289   -1.165278
H     -5.018058    5.929554    1.085681
H     -4.055054    4.841408    3.034903
H     -2.679955    3.215113    4.003667
H     -1.119098    1.316991    3.798916
H     -1.719174    1.825279   -1.663804
H     -0.214591   -0.010099   -2.003577
H     -0.330768   -2.473831   -2.145463
H      0.328040   -3.808506   -1.126979
H      0.403716   -3.955710   -3.712892
H      1.858965   -4.478464   -2.789235
H      3.523179   -3.440113   -2.546246
H      3.948032   -1.894248   -3.472948
H      2.657624   -0.554050   -2.081318
H      3.590183   -1.681949   -1.015062
H      2.256204   -2.873749    1.202153
H      1.581203   -1.966857    3.443515
H      0.101299   -0.165570    3.677531
