24

N      0.257484   -0.108871    0.642887
C     -0.552761    0.024749   -0.484515
C     -1.875082    0.089701   -0.349983
C     -2.572011    0.030788    0.922086
C     -1.950580   -0.094441    2.080105
B     -0.396493   -0.179068    2.028873
C      0.473964   -0.325732    3.280754
C      1.778623   -0.387300    3.115989
C      2.418170   -0.321928    1.802735
C      1.706769   -0.189338    0.615486
C      2.333557   -0.130614   -0.602473
C      3.723700   -0.207211   -0.636129
C      4.458622   -0.339013    0.523714
C      3.810240   -0.396456    1.740997
H     -0.091455    0.074188   -1.461285
H     -2.458465    0.195547   -1.286043
H     -3.655737    0.094590    0.896096
H     -2.473170   -0.138634    3.034241
H     -0.006478   -0.373878    4.254790
H      2.384801   -0.492051    4.021479
H      1.764289   -0.028483   -1.501492
H      4.197751   -0.159055   -1.605563
H      5.537905   -0.393306    0.430848
H      4.374311   -0.500072    2.662812
