48

C     -0.493953    5.781145   -1.657600
C     -0.791482    6.437231   -0.336999
C     -0.578180    5.555752    0.648289
C     -0.723010    5.706589    2.074505
C     -0.438522    4.642897    2.852737
C      0.006443    3.361397    2.292013
C      0.158894    3.158222    0.959480
C      0.617141    1.832301    0.487725
C      1.992108    1.642999    0.412826
C      2.529912    0.423556   -0.027479
C      3.953486    0.311294   -0.071669
N      4.841128    1.265360    0.269509
S      6.347992    0.634675    0.037482
N      5.944301   -0.869811   -0.501744
C      4.601279   -0.953526   -0.527768
C      3.806713   -2.063681   -0.923573
C      4.364892   -3.294420   -1.366018
S      6.025172   -3.774516   -1.543030
C      5.626309   -5.328934   -2.098314
C      4.268671   -5.511937   -2.159581
C      3.532875   -4.351799   -1.741969
C      2.159788   -4.145879   -1.663834
N      1.647905   -2.967596   -1.240643
C      2.386234   -1.913258   -0.865804
C      1.724696   -0.685926   -0.424750
C      0.271768   -0.460765   -0.343778
C     -0.712267   -1.428641   -0.695421
C     -2.092820   -1.211636   -0.619970
C     -2.570121    0.003510   -0.182683
C     -1.661167    0.989992    0.176073
C     -0.257836    0.793684    0.109345
C     -0.136118    4.284425    0.083918
C     -0.081442    4.393040   -1.251875
H     -1.383786    5.756547   -2.293477
H      0.318523    6.296284   -2.178407
H     -1.122934    7.457080   -0.220652
H     -1.050225    6.651812    2.489836
H     -0.531486    4.707367    3.932488
H      0.209335    2.568509    3.007583
H      2.651607    2.462532    0.701241
H      6.404089   -6.035801   -2.353787
H      3.812549   -6.437652   -2.489523
H      1.434839   -4.906976   -1.933834
H     -0.432131   -2.413304   -1.051652
H     -2.781222   -2.001808   -0.907405
H     -3.637895    0.190274   -0.119076
H     -2.073624    1.939339    0.515369
H      0.208318    3.615774   -1.942233
