45

O      3.423712    1.123611   -0.863538
C      2.476921    0.970292   -1.631488
C      2.493707   -0.071741   -2.748073
N      1.516867   -1.138468   -2.494791
C      0.255446   -0.969736   -3.066711
O     -0.087206    0.097287   -3.588227
C     -0.647130   -2.175762   -3.135682
S     -0.912886   -2.897465   -1.519633
C      0.798086   -3.027255   -1.038932
C      1.097002   -4.006130   -0.076207
C      2.393307   -4.161840    0.402500
C      3.396356   -3.329723   -0.070692
C      3.105922   -2.346334   -1.023289
C      1.807418   -2.176757   -1.537844
N      1.319355    1.716720   -1.581608
C      1.020039    2.594886   -0.469466
C      0.524239    1.833352    0.770295
C     -0.838029    1.156627    0.711209
C     -1.714385    1.251167   -0.307404
C     -3.073405    0.610971   -0.313144
C     -3.521345    0.135945    1.066369
C     -2.386814   -0.572413    1.793617
C     -1.170324    0.343004    1.947643
H      2.258112    0.440218   -3.690158
H      3.499265   -0.475432   -2.886794
H     -0.210306   -2.908557   -3.822862
H     -1.617392   -1.870239   -3.540782
H      0.313633   -4.652007    0.314127
H      2.614403   -4.919544    1.148412
H      4.409631   -3.432223    0.309389
H      3.937281   -1.718475   -1.328483
H      0.554647    1.432030   -2.191814
H      0.283241    3.328475   -0.810532
H      1.934793    3.140637   -0.211630
H      1.270168    1.071761    1.030399
H      0.497694    2.544400    1.606028
H     -1.481751    1.827047   -1.198612
H     -3.054560   -0.234592   -1.011173
H     -3.809009    1.326170   -0.697800
H     -3.854851    0.996097    1.661666
H     -4.383145   -0.534094    0.966107
H     -2.101153   -1.472984    1.236549
H     -2.723854   -0.906651    2.781431
H     -0.310136   -0.277847    2.228743
H     -1.348087    1.040714    2.776300
