47

C     -3.436613   -1.664979    2.752015
C     -2.359745   -2.582242    2.240889
C     -1.405208   -1.865482    1.624654
C     -0.173286   -2.320486    0.964802
C      0.628249   -1.386249    0.391910
C      0.238400   -0.010533    0.455155
O      0.932771    1.043970   -0.066153
C      0.242143    2.197430    0.199381
C     -0.917562    1.890192    0.906705
C     -1.752194    2.939213    1.269728
N     -1.431259    4.211508    0.939568
C     -0.305063    4.479040    0.255770
C     -0.049425    5.802214   -0.042453
C      1.090138    6.194832   -0.747746
C      2.026179    5.253004   -1.184563
C      3.162868    5.679170   -1.892639
C      4.112850    4.766080   -2.341796
C      3.935432    3.414921   -2.087275
C      2.808413    2.980178   -1.383657
C      1.819954    3.880008   -0.909910
C      0.629984    3.510082   -0.176570
C     -0.909388    0.487335    1.063942
C     -1.783357   -0.446202    1.677859
C     -2.946884   -0.310237    2.325315
C      0.257077   -3.720721    0.924215
C      0.600162   -4.471649    2.053435
N      0.999782   -5.785260    2.095151
C      1.103681   -6.519129    0.947877
C      0.788386   -5.892055   -0.274305
N      0.830412   -6.450758   -1.494606
S      0.358732   -5.272714   -2.564975
N      0.086028   -4.005482   -1.530629
C      0.351372   -4.448816   -0.287957
H     -3.522169   -1.727869    3.840782
H     -4.401345   -1.897276    2.291501
H     -2.385668   -3.654982    2.358817
H      1.557099   -1.631759   -0.111607
H     -2.676266    2.809236    1.819563
H     -0.758057    6.561283    0.282434
H      1.234040    7.254246   -0.951190
H      3.317629    6.735918   -2.101694
H      4.986479    5.110399   -2.888312
H      4.669480    2.691968   -2.433442
H      2.716842    1.911810   -1.212209
H     -3.476790    0.608445    2.517795
H      0.564048   -4.004928    3.038808
H      1.423337   -7.549246    1.032924
