33

Si     3.905549    1.367480   -0.266872
C      3.898678    2.037365   -2.034418
C      2.673221    2.052164   -2.587390
C      1.637776    1.543206   -1.686988
C      2.029319    1.113213   -0.397567
C      1.170214    0.607087    0.581477
N      1.741317    0.300553    1.747836
C      0.981322   -0.171913    2.759515
C     -0.376290   -0.425927    2.705375
C     -1.010301   -0.942575    3.898615
C     -2.365561   -1.288868    4.007587
C     -2.989406   -1.092692    2.793780
C     -4.304858   -1.399021    2.561049
N     -4.540526   -1.121444    1.239050
C     -3.385583   -0.659668    0.640225
C     -2.396307   -0.576735    1.590974
C     -1.024906   -0.155611    1.448806
C     -0.236282    0.435022    0.357547
C     -0.693829    0.917726   -0.946434
N     -1.957088    0.983078   -1.398310
S     -1.937823    1.601089   -2.927831
N     -0.319018    1.855429   -3.127356
C      0.271377    1.471177   -1.983750
H      4.678132    0.100796   -0.201892
H      4.302076    2.436630    0.684558
H      4.816888    2.362466   -2.499319
H      2.444368    2.398427   -3.587048
H      1.549937   -0.359300    3.669038
H     -0.399303   -1.086503    4.792753
H     -2.818865   -1.680858    4.905929
H     -5.084944   -1.800013    3.193759
H     -5.420163   -1.263297    0.759719
H     -3.417378   -0.460469   -0.416592
