68

C     -5.237839   -1.857694    0.855118
C     -4.484807   -0.759995    0.462141
C     -3.444359   -0.281911    1.263968
C     -3.152789   -0.947536    2.474691
C     -3.931790   -2.025378    2.901687
C     -4.976431   -2.490929    2.072403
C     -3.457214   -2.425473    4.184683
C     -3.856047   -3.437431    5.086246
C     -3.161275   -3.619571    6.284006
C     -2.068503   -2.819111    6.586740
C     -1.655471   -1.809835    5.711927
C     -2.381093   -1.599736    4.519796
N     -2.199110   -0.700011    3.466555
C     -1.194314    0.312808    3.407955
C     -0.917338    1.094500    4.519584
C      0.061925    2.082861    4.429752
C      0.789849    2.326741    3.241006
C      0.518222    1.535428    2.097317
C     -0.479823    0.529171    2.221162
C      1.244349    1.784358    0.889476
C      1.042041    1.052867   -0.313487
C      1.750431    1.323427   -1.492851
N      1.487897    0.568232   -2.675662
C      0.217503    0.218524   -3.142492
C     -1.076079    0.548807   -2.683041
C     -2.185921    0.048461   -3.369299
C     -2.025792   -0.742104   -4.498865
C     -0.746826   -1.033753   -4.978374
C      0.390949   -0.538318   -4.303507
C      1.790018   -0.630028   -4.559173
C      2.543583   -1.257042   -5.576551
C      3.938950   -1.209134   -5.542619
C      4.590850   -0.557954   -4.504675
C      3.867454    0.073503   -3.488201
C      2.457369    0.056390   -3.541412
C      2.702125    2.332114   -1.497881
C      2.926845    3.060913   -0.330725
C      2.217342    2.814416    0.868678
C      2.480683    3.587317    2.012994
N      3.422311    4.568495    1.971306
C      3.643001    5.286180    3.089052
C      2.946912    5.048767    4.244879
N      2.008513    4.086068    4.319397
C      1.761620    3.341910    3.207451
H     -6.045418   -2.218192    0.223273
H     -4.712002   -0.258464   -0.475893
H     -2.894116    0.599919    0.950945
H     -5.584912   -3.335236    2.383651
H     -4.697107   -4.081763    4.846071
H     -3.469768   -4.401958    6.972590
H     -1.519297   -2.983708    7.511006
H     -0.776682   -1.221224    5.956428
H     -1.472501    0.989452    5.448121
H      0.252677    2.690390    5.315615
H     -0.682945   -0.135916    1.386511
H      0.343373    0.221045   -0.328989
H     -1.228650    1.193394   -1.822956
H     -3.186292    0.290219   -3.018136
H     -2.897665   -1.124067   -5.023193
H     -0.630537   -1.634880   -5.875915
H      2.040424   -1.786977   -6.380397
H      4.514733   -1.698995   -6.324034
H      5.678220   -0.547127   -4.473550
H      4.402276    0.544951   -2.669533
H      3.247554    2.602639   -2.398276
H      3.672431    3.856614   -0.364583
H      4.398752    6.059325    3.022151
H      3.119227    5.622801    5.147213
