21

C     -4.289078   -0.975428    1.610521
C     -4.159863    0.200150    2.337018
C     -3.004676    0.977857    2.230190
C     -1.972405    0.549853    1.372961
S     -0.469448    1.337224    1.081707
C      0.040178    0.137908   -0.011720
C      1.408294    0.159094   -0.748671
C      1.940896   -0.763319   -1.666885
N      3.156323   -0.404043   -2.090629
O      3.432981    0.787185   -1.434494
C      2.384259    1.114801   -0.636329
C     -0.903597   -0.851283   -0.164459
C     -2.079008   -0.629282    0.631630
C     -3.261759   -1.396546    0.760686
H     -5.192886   -1.573311    1.701277
H     -4.963657    0.520761    2.995918
H     -2.906281    1.897524    2.800017
H      1.509626   -1.676731   -2.049661
H      2.495177    2.030858   -0.075833
H     -0.781793   -1.709293   -0.813377
H     -3.375858   -2.319424    0.197308
