29

C     -2.114630   -1.985083    4.361691
C     -1.195988   -1.528747    3.269769
C     -0.220465   -0.541269    3.528423
C      0.685232   -0.054832    2.555331
C      0.719169   -0.497391    1.211068
C      1.674618    0.027731    0.229339
C      1.251226    0.532394   -1.009921
C      2.166071    1.048541   -1.934055
C      3.049800    0.065881    0.513411
C      3.967418    0.581293   -0.408437
C      3.533224    1.065640   -1.645189
C      4.510842    1.646296   -2.622707
C     -0.244892   -1.499252    0.884822
N     -0.420940   -2.095071   -0.309461
S     -1.658690   -3.179174   -0.137431
N     -2.047806   -2.956588    1.456496
C     -1.212834   -2.018048    1.933742
H     -2.700304   -1.139853    4.737051
H     -2.813698   -2.750279    4.011679
H     -1.534491   -2.410561    5.186751
H     -0.155968   -0.121476    4.534225
H      1.389609    0.719015    2.867027
H      0.194097    0.530775   -1.269517
H      1.798936    1.433361   -2.882803
H      3.424523   -0.318963    1.459754
H      5.024639    0.595537   -0.153441
H      4.631470    2.718357   -2.439239
H      4.167847    1.499527   -3.652297
H      5.487882    1.159715   -2.533991
