38

Br    -0.386853    2.511861   -6.561353
C     -0.104650    2.016348   -4.759380
C     -0.563342    2.840686   -3.734956
C     -0.352535    2.472882   -2.402842
C      0.305477    1.276316   -2.087268
C      0.531218    0.943005   -0.674927
C      0.456049   -0.300995   -0.172560
N      0.637705   -0.755388    1.140989
C      0.056313   -2.017330    1.527793
C      0.725984   -2.878757    2.416082
C      0.169069   -4.103870    2.794528
C     -1.070646   -4.490957    2.293357
C     -1.754138   -3.654475    1.415085
C     -1.195847   -2.429947    1.035802
C      1.417966    0.015935    2.071197
C      0.954242    0.237109    3.379983
C      1.706671    0.979187    4.293945
C      2.937844    1.509241    3.915336
C      3.418173    1.297094    2.625111
C      2.664821    0.555632    1.711013
C      0.774834    0.466486   -3.130855
C      0.566060    0.831952   -4.464200
H     -1.082722    3.768613   -3.958679
H     -0.715435    3.126404   -1.611994
H      0.732858    1.784496   -0.017282
H      0.193913   -1.119553   -0.840534
H      1.703672   -2.608258    2.808297
H      0.708051   -4.754479    3.478191
H     -1.504320   -5.442874    2.588257
H     -2.725747   -3.949569    1.027516
H     -1.764379   -1.785430    0.369862
H     -0.010574   -0.159195    3.688119
H      1.328136    1.143458    5.299313
H      3.523776    2.085921    4.626291
H      4.381540    1.703647    2.328848
H      3.066652    0.382693    0.715772
H      1.318128   -0.451751   -2.919422
H      0.935033    0.189698   -5.259404
