43

C      0.927982    0.391039    2.897096
N      1.460407    1.589950    2.488016
C      1.292961    1.736988    1.130468
C      0.747163    0.574487    0.634410
C      0.407582   -0.225018    1.782470
C     -0.332479   -1.407955    1.761174
C     -0.786875   -1.649746    0.443575
C     -0.483759   -0.835138   -0.712287
C     -1.117849   -1.112746   -1.908276
N     -0.995957   -0.387572   -3.038708
C     -0.101239    0.606551   -3.070471
C     -0.037946    1.311243   -4.256910
C      0.888767    2.325908   -4.463610
C      1.859371    2.583916   -3.503220
C      2.868892    3.521589   -3.782338
C      3.927667    3.715351   -2.901942
C      3.999950    2.947823   -1.751765
C      2.984297    2.029872   -1.463396
C      1.842921    1.861761   -2.283066
C      0.745895    0.948080   -1.994290
C      0.404727    0.289346   -0.729354
C     -0.679282   -2.216211    2.912531
C     -1.324685   -1.737577    4.062701
N     -1.688189   -2.436810    5.189569
C     -1.437423   -3.773664    5.286129
C     -0.804539   -4.409148    4.200636
N     -0.485505   -5.710733    4.113564
S      0.237655   -5.916745    2.634380
N      0.170007   -4.371263    2.038876
C     -0.418435   -3.610028    2.980916
H      0.941420    0.123953    3.945174
H      1.868303    2.285244    3.100364
H      1.574898    2.669191    0.661465
H     -1.445561   -2.510082    0.295891
H     -1.820301   -1.938834   -1.996151
H     -0.735297    1.061685   -5.054232
H      0.883166    2.854582   -5.413895
H      2.853279    4.089417   -4.710680
H      4.710883    4.430799   -3.136034
H      4.850447    3.043533   -1.082058
H      3.127238    1.394591   -0.593088
H     -1.603484   -0.683597    4.116144
H     -1.741096   -4.282793    6.190947
