41

C     -1.200463    1.201974   -3.044717
C     -0.412232    1.746345   -1.848050
C     -1.039999    3.040709   -1.318581
C      1.059425    1.958619   -2.210704
C      1.605463    2.806478   -3.164506
C      2.993636    2.827904   -3.312498
C      3.813203    2.012444   -2.515561
C      3.258988    1.159780   -1.556082
C      1.881421    1.136506   -1.408552
C      1.046844    0.365484   -0.511791
C      1.391727   -0.570195    0.453723
C      0.387184   -1.205595    1.214873
C      0.753578   -2.208248    2.236513
C     -0.072557   -3.252664    2.628107
N      0.271920   -4.164127    3.567544
C      1.480715   -4.027945    4.122065
N      1.851108   -4.915239    5.055920
C      3.076325   -4.757420    5.595642
C      3.917481   -3.736589    5.212930
N      3.566279   -2.832937    4.275903
C      2.351320   -2.967789    3.725770
N      1.982131   -2.079115    2.794339
C     -0.961783   -0.843087    0.969042
C     -1.313826    0.100561   -0.004189
C     -0.303059    0.695550   -0.739833
H     -1.222471    1.923514   -3.869546
H     -2.238618    0.980777   -2.771255
H     -0.759470    0.275283   -3.432115
H     -0.483859    3.438988   -0.461029
H     -1.056043    3.820471   -2.088754
H     -2.073414    2.878203   -0.991323
H      0.976858    3.439546   -3.781938
H      3.447279    3.483707   -4.051999
H      4.892383    2.045474   -2.645746
H      3.901594    0.535402   -0.944218
H      2.438581   -0.813146    0.621369
H     -1.051072   -3.411217    2.187338
H      3.362770   -5.481920    6.349805
H      4.902439   -3.613424    5.649327
H     -1.768176   -1.281860    1.553776
H     -2.355129    0.359881   -0.167743
