44

C      1.425137    2.661528    1.010374
C      0.838019    3.988718    1.441140
C     -0.498087    3.938656    1.275995
C     -0.890536    2.653347    0.757153
C      0.200589    1.890310    0.589548
C      0.257481    0.528509    0.105077
C     -0.291848   -0.451135    0.861210
C     -0.267932   -1.864603    0.494245
C      0.320936   -2.324935   -0.633164
C      0.247763   -3.727738   -0.890377
S      1.302996   -4.842819   -0.072526
C      0.646565   -6.219204   -0.885755
C     -0.338830   -5.841840   -1.755873
C     -1.155461   -6.617737   -2.637601
C     -2.040871   -5.902953   -3.366459
Si    -1.915476   -4.025785   -2.974870
C     -0.546613   -4.438607   -1.745999
C      0.933752   -1.330910   -1.519306
C      1.550007   -1.593997   -2.690513
Si     2.149262   -0.030814   -3.508792
C      1.454112    0.929877   -2.065744
C      0.893475    0.110322   -1.152105
C      1.473424    5.158764    1.945058
N      0.880707    6.287329    2.296497
C      1.805101    7.209722    2.741836
C      3.113926    6.789020    2.731957
S      3.197653    5.184788    2.146226
H      1.931497    2.166006    1.845942
H      2.126285    2.797389    0.181362
H     -1.198184    4.733393    1.494714
H     -1.911380    2.373764    0.543769
H     -0.772313   -0.220115    1.809297
H     -0.757676   -2.543592    1.188606
H      1.027572   -7.208018   -0.673569
H     -1.062810   -7.695385   -2.707295
H     -2.752508   -6.268068   -4.088952
H     -1.459395   -3.282628   -4.176732
H     -3.175723   -3.544266   -2.355454
H      1.699704   -2.559229   -3.148335
H      1.433019    0.257367   -4.774692
H      3.628177    0.048768   -3.577670
H      1.522771    2.004941   -2.032897
H      1.464499    8.185512    3.065786
H      3.998143    7.331879    3.032199
