39

C     -1.377404    1.335102    2.364511
C     -2.895795    1.604468    2.176684
C     -3.764875    2.185256    3.148605
C     -5.151498    2.403143    2.905945
C     -5.537339    1.984828    1.626588
C     -6.782209    2.042899    1.060740
O     -6.731668    1.528914   -0.210741
C     -5.438525    1.139778   -0.454908
C     -4.675843    1.402700    0.647008
C     -3.338808    1.190649    0.876014
C     -2.220578    0.667951    0.193743
N     -1.906494    0.124169   -1.002354
C     -0.554153   -0.156789   -0.938965
C      0.507262   -0.699519   -1.704566
C      1.628888   -0.630529   -0.887939
N      1.267480   -0.070487    0.322201
C     -0.064915    0.216357    0.285253
C     -1.129284    0.748298    1.021865
C      2.978774   -1.044381   -1.162353
S      4.268680   -0.873743    0.007471
C      5.472791   -1.558090   -1.034657
C      4.874099   -1.882141   -2.196977
N      5.468596   -2.447573   -3.287127
C      4.389778   -2.549096   -4.161293
C      3.203726   -2.051116   -3.580268
C      3.525736   -1.605145   -2.267869
H     -0.835386    2.271230    2.517158
H     -1.209627    0.617367    3.170817
H     -3.353752    2.474109    4.114923
H     -5.813755    2.842878    3.639376
H     -7.753555    2.389871    1.382575
H     -5.256960    0.713274   -1.430095
H     -2.493750   -0.060148   -1.804950
H      0.456689   -1.086061   -2.711661
H      1.868743    0.106980    1.115488
H      6.504718   -1.673217   -0.735364
H      6.439042   -2.712541   -3.402090
H      4.548852   -2.973673   -5.144287
H      2.239117   -2.025640   -4.067796
