48

C     -5.426325   -2.386102   -0.693188
C     -6.724613   -1.964585   -0.336649
C     -6.576820   -0.961205    0.650750
C     -7.313368   -0.144773    1.429190
S     -6.211764    0.784054    2.398528
C     -4.793746    0.044846    1.708286
C     -3.459471    0.397157    2.092830
S     -2.137613    0.494505    0.960171
C     -0.981085    0.994159    2.153191
C      0.383746    1.293194    1.849646
C      1.256788    2.206980    2.408699
C      2.496236    2.097198    1.729372
C      2.354946    1.136793    0.746735
N      1.070015    0.654268    0.843040
C      3.312981    0.621439   -0.232544
C      4.437832   -0.059109    0.258927
C      5.366982   -0.615972   -0.613203
C      5.182093   -0.498498   -1.988200
C      4.075270    0.186746   -2.512209
C      3.912934    0.301476   -3.903185
C      2.830639    0.991717   -4.446613
C      1.898566    1.583752   -3.605553
C      2.044523    1.476850   -2.220681
C      3.123396    0.768677   -1.636350
C     -1.613073    1.038063    3.347340
N     -1.079327    1.338024    4.570000
C     -2.192309    1.218976    5.397196
C     -3.341255    0.848511    4.669018
C     -2.955869    0.722859    3.306940
C     -5.209725   -0.865573    0.795298
N     -4.448871   -1.697958    0.021952
H     -5.118637   -3.135620   -1.411131
H     -7.644530   -2.353865   -0.752328
H     -8.383554   -0.023547    1.511026
H      1.031949    2.901350    3.207230
H      3.392340    2.674366    1.920202
H      0.683649   -0.068252    0.250663
H      4.585395   -0.168542    1.331351
H      6.231928   -1.145354   -0.222564
H      5.918636   -0.944099   -2.653926
H      4.638258   -0.145780   -4.579924
H      2.723248    1.074104   -5.524892
H      1.060422    2.136696   -4.021725
H      1.307599    1.975237   -1.594307
H     -0.116798    1.564864    4.786735
H     -2.079334    1.402995    6.458025
H     -4.322737    0.685252    5.094655
H     -3.438211   -1.764924   -0.000423
