46

C     -0.657241    3.400611    4.483573
C     -0.910826    2.363689    5.534363
C     -0.823343    1.147432    4.980141
C     -0.828705   -0.125847    5.645343
C     -0.504943   -1.216908    4.930947
C     -0.224233   -1.151434    3.476918
N      0.180653   -2.326666    2.948966
C      0.412818   -2.350828    1.619675
C      0.167139   -1.301954    0.734002
C      0.411046   -1.470284   -0.664159
C      0.993449   -2.662590   -1.385774
C      0.978420   -2.204891   -2.848148
C      0.449571   -0.969831   -2.971560
C      0.110159   -0.517938   -1.646226
C     -0.521696    0.612544   -1.167300
C     -1.010227    1.612877   -1.970458
S     -1.873718    2.772153   -1.049729
C     -1.598680    1.913940    0.414657
C     -0.767462    0.829381    0.248678
C     -0.356092   -0.080025    1.300910
C     -0.416733    0.033852    2.726099
C     -0.587493    1.260702    3.540278
C     -0.406974    2.563555    3.260513
C      1.418061   -2.934014   -3.991867
S      1.277148   -4.668125   -4.022985
C      1.940340   -4.813268   -5.601473
C      2.282793   -3.586013   -6.085674
S      3.033767   -3.111467   -7.652497
C      2.959522   -1.476036   -7.016440
C      2.406936   -1.332961   -5.738319
C      1.985987   -2.571104   -5.175179
H     -1.524296    4.053196    4.347154
H      0.222698    4.001422    4.731813
H     -1.049152    2.579005    6.582791
H     -1.032403   -0.183563    6.708130
H     -0.453137   -2.197911    5.389938
H      0.792041   -3.308819    1.271103
H      0.359997   -3.543821   -1.243753
H      2.017804   -2.857530   -1.052805
H      0.277941   -0.403094   -3.871502
H     -0.950521    1.717032   -3.044866
H     -2.092006    2.270062    1.305955
H     -0.091738    2.988411    2.320769
H      2.058830   -5.766735   -6.097401
H      3.347456   -0.685806   -7.644908
H      2.330048   -0.368652   -5.252195
