46

Si    -2.146001    5.275764    1.717655
C     -3.118169    3.948926    2.592164
C     -2.593978    2.720106    2.387163
C     -3.128277    1.456290    2.943101
C     -4.275946    1.444022    3.761395
C     -4.777361    0.255305    4.283767
C     -4.138482   -0.938694    3.995433
C     -2.998806   -0.943556    3.185049
C     -2.457338    0.241074    2.634884
C     -1.229943    0.230492    1.762087
C     -0.548406   -0.963616    1.445301
C      0.608000   -0.982351    0.621732
C      1.375065   -2.122816    0.235880
C      1.089169   -3.414073    0.617455
S      2.204169   -4.540553   -0.043194
C      3.081094   -3.305952   -0.849435
C      2.548929   -2.059217   -0.610632
C      3.054791   -0.864607   -1.143173
C      2.291505    0.264203   -0.763125
C      1.125524    0.224245    0.078120
C      0.448376    1.407153    0.397073
C     -0.703795    1.432464    1.217671
C     -1.389904    2.709366    1.530191
C     -1.012694    3.932029    1.093942
C      4.228176   -0.780108   -1.990072
C      5.540589   -1.154626   -1.760686
C      6.294125   -0.844497   -2.918254
C      5.428975   -0.284004   -3.828767
N      4.184202   -0.243181   -3.257573
H     -1.467394    6.200534    2.657018
H     -2.914198    5.921033    0.625891
H     -3.983280    4.221157    3.172411
H     -4.799858    2.362798    4.006350
H     -5.663161    0.265859    4.912834
H     -4.521528   -1.872884    4.398304
H     -2.550085   -1.913904    3.000748
H     -0.897367   -1.913423    1.830952
H      0.289767   -3.782587    1.243423
H      3.937062   -3.574889   -1.452946
H      2.627605    1.238697   -1.123081
H      0.834893    2.338744   -0.008044
H     -0.179619    4.196664    0.465760
H      5.916407   -1.600975   -0.848404
H      7.352956   -1.011015   -3.068518
H      5.590479    0.089152   -4.831142
H      3.348051    0.109334   -3.704361
