38

O     -3.045973    0.828962   -1.724216
C     -1.998814    1.452034   -1.877601
C     -1.889218    2.522114   -2.952107
S     -1.187309    1.846750   -4.479419
C      0.513924    1.857139   -4.117504
N      1.014459    2.212897   -2.944830
C      2.370742    2.068813   -3.113016
C      3.437398    2.291518   -2.233338
C      4.738251    2.045830   -2.699815
C      4.967031    1.591111   -4.005279
C      3.909689    1.365089   -4.894948
C      2.639554    1.620211   -4.394487
O      1.450795    1.482590   -5.044496
N     -0.839670    1.306803   -1.148619
C     -0.719830    0.425593   -0.114478
N     -1.629866   -0.318406    0.452371
C     -1.065052   -1.065702    1.477699
C     -1.881368   -1.991974    2.262860
C     -1.412594   -2.608425    3.432791
C     -2.228326   -3.487636    4.153671
C     -3.522133   -3.761138    3.716345
C     -4.003954   -3.155513    2.559352
C     -3.189667   -2.276681    1.840113
C      0.291035   -0.852880    1.653029
S      0.857996    0.310548    0.522309
H     -1.318849    3.383192   -2.587987
H     -2.900036    2.886086   -3.166953
H      3.263212    2.642853   -1.222313
H      5.584131    2.210759   -2.034381
H      5.988475    1.409149   -4.336217
H      4.066446    1.013518   -5.907137
H      0.012106    1.762831   -1.462645
H     -0.414329   -2.414717    3.812623
H     -1.852705   -3.956696    5.059624
H     -4.155267   -4.443739    4.276986
H     -5.012947   -3.361968    2.211983
H     -3.585652   -1.810561    0.937761
H      0.973208   -1.302974    2.357928
