39

C      3.880423   -0.878126    1.556936
N      2.914586    0.145533    1.172203
C      3.063598    1.464466    1.640633
C      4.045231    1.879176    2.552699
C      4.137672    3.215391    2.964509
C      3.246026    4.165653    2.476048
C      2.253678    3.778866    1.581781
C      2.161942    2.443007    1.177951
O      1.135684    2.153436    0.302173
C      0.918018    0.825602   -0.006792
C     -0.224076    0.566185   -0.775167
C     -0.552604   -0.742815   -1.133793
C     -1.745498   -1.037643   -1.928845
C     -1.977351   -2.018912   -2.878783
C     -3.312077   -1.888584   -3.352279
C     -4.091768   -2.572039   -4.292742
N     -5.375189   -2.199053   -4.525199
C     -5.885499   -1.156251   -3.832990
C     -5.196946   -0.415691   -2.883361
C     -3.881685   -0.819512   -2.665456
N     -2.921326   -0.326617   -1.813842
C      0.289309   -1.775922   -0.710133
C      1.434908   -1.509985    0.055888
C      1.781169   -0.202131    0.415819
H      4.894547   -0.476904    1.657763
H      3.589329   -1.342910    2.504914
H      3.983144   -1.661045    0.798041
H      4.755331    1.178129    2.978146
H      4.909435    3.509885    3.671592
H      3.320105    5.201582    2.795326
H      1.547437    4.510383    1.200024
H     -0.834235    1.405452   -1.095597
H     -1.255135   -2.753504   -3.211090
H     -3.721749   -3.412544   -4.868068
H     -6.918434   -0.915877   -4.072389
H     -5.654618    0.411418   -2.357493
H     -3.066816    0.440965   -1.173772
H      0.057348   -2.809725   -0.957362
H      2.030296   -2.361122    0.368821
