41

Si     3.430854    3.450407    1.306939
C      1.920976    3.643399    2.397307
C      1.012186    2.678311    2.148901
C     -0.287066    2.531840    2.824493
C     -0.862593    3.371562    3.880692
C     -2.081350    2.998763    4.317196
Si    -2.687146    1.461785    3.402961
C     -1.101890    1.502590    2.463532
C     -0.705898    0.586683    1.453870
O     -1.424170   -0.489820    0.994032
C     -0.647243   -1.070103    0.031016
C     -0.837722   -2.193755   -0.794184
C      0.269839   -2.348418   -1.610019
S      1.493577   -1.151086   -1.346034
C      0.522345   -0.401730   -0.126251
C      0.506467    0.672570    0.781490
C      1.429024    1.711259    1.083744
C      2.635910    1.945885    0.537510
C      0.504784   -3.369115   -2.619501
C      1.536584   -4.336449   -2.539165
C      1.752318   -5.356425   -3.521360
C      0.962108   -5.514988   -4.680126
C     -0.050928   -4.558500   -4.756427
C     -0.940133   -4.512601   -5.801346
S     -2.052772   -3.216636   -5.614803
C     -1.337524   -2.715628   -4.132382
C     -0.282487   -3.523821   -3.774571
H      4.646021    3.113625    2.086422
H      3.575840    4.570007    0.346255
H      1.851719    4.447230    3.111809
H     -0.328524    4.228791    4.269930
H     -2.676924    3.473768    5.080332
H     -3.894230    1.777033    2.597106
H     -2.823402    0.318111    4.340682
H     -1.707694   -2.836224   -0.793560
H      3.129080    1.382803   -0.237997
H      2.207355   -4.316248   -1.679011
H      2.576978   -6.051999   -3.360241
H      1.143619   -6.292941   -5.409978
H     -1.004742   -5.157227   -6.667081
H     -1.740644   -1.852587   -3.620955
