34

C      1.000740   -2.320618    0.832996
C     -0.129817   -2.842972    0.224498
S     -0.756967   -1.698755   -0.894617
C      0.459912   -0.537153   -0.566344
C      0.606874    0.730396   -1.141102
C      1.663509    1.566119   -0.761814
C      2.556536    1.100128    0.197702
C      2.418231   -0.158654    0.774522
C      1.355175   -1.000245    0.393362
N      3.493849    2.087259    0.400200
C      3.233324    3.174498   -0.398219
C      3.891994    4.395207   -0.543176
C      3.335110    5.278191   -1.464405
C      2.194221    4.904570   -2.162121
N      1.544299    3.728890   -2.034798
C      2.091179    2.871307   -1.135317
C     -0.778250   -4.163585    0.431994
C     -0.242281   -5.080290    1.355094
C     -0.831092   -6.331830    1.572030
C     -1.973091   -6.697185    0.868919
C     -2.524926   -5.811750   -0.049655
C     -1.933990   -4.560663   -0.264681
H      1.576957   -2.852732    1.578252
H     -0.100604    1.079141   -1.890125
H      3.128250   -0.502128    1.522676
H      4.266343    2.020757    1.046750
H      4.781393    4.646156    0.022717
H      3.785374    6.250009   -1.638356
H      1.750448    5.586109   -2.884186
H      0.648586   -4.841340    1.928685
H     -0.393505   -7.018601    2.292073
H     -2.431689   -7.668027    1.035760
H     -3.417996   -6.089080   -0.604080
H     -2.406000   -3.907066   -0.993834
