37

C     -3.458229    3.798825   -3.122369
C     -2.689402    4.954205   -3.036269
C     -1.478259    4.930351   -2.344698
C     -1.022255    3.749717   -1.738177
C     -1.785356    2.574230   -1.839220
C     -3.011872    2.619899   -2.522176
N     -1.399386    1.373191   -1.218171
C     -0.194700    1.130857   -0.534127
C      0.043053   -0.155380   -0.015887
C      1.204330   -0.461522    0.715344
C      1.436154   -1.817223    1.238441
C      1.387450   -2.935592    0.399150
C      1.610580   -4.217911    0.908600
C      1.885290   -4.422357    2.252553
N      2.094322   -5.674257    2.706338
C      2.356507   -5.797359    4.025153
C      2.409583   -4.708054    4.869615
N      2.202968   -3.447129    4.432765
C      1.939579   -3.302922    3.118276
C      1.715622   -2.032569    2.598027
C      2.131169    0.565394    0.933816
C      1.902468    1.852906    0.441376
C      0.741929    2.145592   -0.286306
S      0.533052    3.820379   -0.865063
H     -4.407704    3.814346   -3.651282
H     -3.032546    5.875493   -3.499781
H     -0.891035    5.843602   -2.277766
H     -3.634186    1.731369   -2.590189
H     -1.913475    0.551219   -1.505433
H     -0.701069   -0.933754   -0.173378
H      1.188581   -2.819796   -0.664732
H      1.573013   -5.075985    0.241915
H      2.523994   -6.805524    4.385856
H      2.620705   -4.817453    5.926995
H      1.751273   -1.188599    3.284848
H      3.047926    0.371897    1.487943
H      2.640877    2.628559    0.633246
