45

Si    -1.255979   -4.992837   -2.149690
C      0.365754   -4.098910   -2.331208
C      0.336133   -2.904308   -1.709131
C      1.371105   -1.928480   -1.665765
C      2.588430   -1.806306   -2.315730
Si     3.752843   -2.622244   -3.512511
C      4.840438   -1.003036   -3.432336
C      4.303454   -0.075268   -2.608597
C      3.104874   -0.562706   -2.044610
N      2.232883    0.093928   -1.233090
C      1.203949   -0.774246   -0.888792
C      0.014047   -0.463784   -0.050233
C     -0.058469    0.614505    0.888688
C      1.074395    1.334342    1.354929
C      0.979944    2.405831    2.244052
C     -0.257392    2.781028    2.727804
C     -1.386834    2.061595    2.343831
C     -1.324109    0.967897    1.441246
C     -2.469952    0.197439    1.107088
C     -2.336850   -0.951936    0.314823
C     -1.111901   -1.312800   -0.247224
C     -0.949596   -2.576791   -1.031845
C     -1.887032   -3.543303   -1.154968
C     -3.816620    0.533284    1.564667
C     -4.616680    1.655517    1.476185
C     -5.838541    1.331576    2.114602
C     -5.712281    0.031614    2.543430
O     -4.493321   -0.463881    2.208238
H     -1.968491   -5.146556   -3.441092
H     -1.138519   -6.229592   -1.340243
H      1.179003   -4.534828   -2.884509
H      4.519867   -3.773109   -2.970807
H      3.225178   -2.808622   -4.888512
H      5.746370   -0.939613   -4.012274
H      4.727163    0.900423   -2.411307
H      2.297032    1.066013   -0.969288
H      2.078943    1.023792    1.084561
H      1.877232    2.922420    2.574154
H     -0.347228    3.603516    3.432082
H     -2.331051    2.352263    2.799175
H     -3.223308   -1.552781    0.127135
H     -2.880870   -3.570175   -0.740710
H     -4.348774    2.589336    1.001806
H     -6.705777    1.963925    2.241387
H     -6.363893   -0.651236    3.070517
