23

N      0.562879    1.751929   -2.040559
C      1.056775    1.162628   -1.171589
C      1.699231    0.454207   -0.115886
C      3.067712    0.274524   -0.143226
N      3.757286   -0.406128    0.794687
C      3.026469   -0.928251    1.786653
N      1.694634   -0.830056    1.909045
C      1.032738   -0.114517    0.959694
C     -0.430169   -0.029040    1.167106
C     -1.066089    1.229389    1.219365
C     -2.452047    1.339506    1.352181
C     -3.233016    0.193381    1.433718
C     -2.625630   -1.060303    1.409812
C     -1.231658   -1.184451    1.332007
N     -0.702435   -2.491612    1.222031
H      3.678410    0.680653   -0.947245
H      3.555164   -1.481289    2.555869
H     -0.484554    2.147397    1.154677
H     -2.920128    2.320396    1.381304
H     -4.313437    0.271703    1.520541
H     -3.241550   -1.954193    1.478158
H     -0.801507   -2.848644    0.275305
H      0.281548   -2.499011    1.499327
