48

Si     0.743406   -1.933475    0.287987
C      0.604270   -2.075366    2.138873
C      0.189488   -0.903942    2.664547
C     -0.059101    0.161654    1.683890
C     -0.554541    1.389469    2.008407
N     -0.838359    2.309351    1.075267
C     -0.625178    2.074378   -0.244865
C     -0.034857    0.871304   -0.717896
C      0.199741   -0.107992    0.317688
C      0.238550    0.755908   -2.150511
C      0.991058   -0.308722   -2.720058
C      1.214597   -0.477671   -4.087205
C      0.702238    0.442173   -4.966074
C      0.009908    1.537114   -4.459365
C     -0.222270    1.751034   -3.068772
C     -0.877760    2.929505   -2.596363
C     -1.361122    3.984752   -3.505528
C     -1.989834    5.202525   -3.163353
C     -2.099510    5.290253   -1.796625
C     -2.659867    6.352560   -1.135407
N     -2.583107    6.062498    0.204724
C     -1.984744    4.835381    0.386164
C     -1.665221    4.317076   -0.850195
C     -1.033004    3.067400   -1.173454
C      0.900881   -3.266150    2.932767
N      0.752936   -3.165743    4.300184
C      1.001922   -4.216869    5.140495
C      1.421350   -5.491342    4.787371
C      1.590636   -5.657656    3.401713
N      1.988244   -6.794302    2.808467
S      2.032459   -6.488018    1.181017
N      1.552461   -4.902844    1.153998
C      1.329573   -4.529350    2.428484
H     -0.243656   -2.767883   -0.443718
H      2.149988   -2.063829   -0.175317
H      0.030221   -0.730292    3.722788
H     -0.772755    1.678109    3.030590
H      1.487129   -1.040639   -2.101803
H      1.796257   -1.321862   -4.447094
H      0.856868    0.335004   -6.035692
H     -0.339487    2.239788   -5.208836
H     -1.237790    3.857273   -4.579300
H     -2.318320    5.935247   -3.884909
H     -3.101610    7.277322   -1.480086
H     -2.915627    6.657615    0.951843
H     -1.847523    4.457691    1.389272
H      0.839380   -3.979829    6.192011
H      1.600442   -6.279342    5.504289
