49

Si    -3.739219    5.699530    2.322599
C     -3.455810    7.252460    1.301900
C     -2.793014    7.012860    0.154648
C     -2.439877    5.595654   -0.043131
C     -1.757805    5.092546   -1.142196
C     -1.478927    3.720482   -1.217571
C     -1.894465    2.866131   -0.175733
C     -2.586464    3.378717    0.939066
N     -2.876018    2.338503    1.807357
C     -2.379803    1.180362    1.272828
C     -2.252347   -0.203949    1.494535
C     -1.561368   -0.654834    0.377501
O     -1.285621    0.380709   -0.490032
C     -1.802116    1.489201    0.097972
C     -1.179720   -2.009826    0.077458
S     -2.468119   -3.121635   -0.199880
C     -1.397694   -4.386419   -0.584786
C     -0.080796   -4.000336   -0.486356
C      0.063860   -2.614149   -0.070262
C      1.350350   -2.002526    0.139279
C      1.595762   -0.676009    0.594620
C      2.886380   -0.185372    0.754191
C      3.960600   -1.005159    0.472217
C      3.743265   -2.318243    0.039580
C      2.455384   -2.886270   -0.142172
C      2.283807   -4.284084   -0.581459
C      3.375330   -5.150438   -0.857440
C      3.225988   -6.483457   -1.267501
C      1.963673   -7.027560   -1.425248
C      0.850430   -6.237627   -1.174271
C      0.997181   -4.884275   -0.758965
C     -2.861029    4.744816    1.007699
H     -3.007225    5.725939    3.613975
H     -5.177151    5.349624    2.440010
H     -3.809156    8.212139    1.646042
H     -2.529907    7.767728   -0.574028
H     -1.437677    5.749576   -1.945612
H     -0.946081    3.315134   -2.073398
H     -3.365580    2.387358    2.691270
H     -2.599849   -0.798092    2.326802
H     -1.814314   -5.343809   -0.860197
H      0.789069    0.000789    0.841989
H      3.044552    0.833435    1.096742
H      4.975530   -0.634298    0.589961
H      4.642132   -2.896509   -0.152899
H      4.400637   -4.805763   -0.759281
H      4.107675   -7.089433   -1.461812
H      1.845145   -8.059372   -1.743471
H     -0.130329   -6.683266   -1.307945
