28

C     -4.110918   -2.844062   -1.102690
O     -3.368940   -2.304857   -0.015883
C     -2.512480   -1.277012   -0.296306
C     -2.335875   -0.672741   -1.543212
C     -1.422790    0.376388   -1.693179
C     -0.681527    0.813594   -0.592253
C      0.274486    1.933586   -0.748643
C     -0.323650    3.240713   -1.228866
N      1.546304    1.945249   -0.479249
N      2.212613    0.796970   -0.174809
C      2.102016   -0.480686   -0.662278
N      3.003872   -1.263394   -0.111844
N      3.776230   -0.484339    0.714702
C      3.315440    0.743100    0.637728
C     -0.859417    0.224906    0.660350
C     -1.772762   -0.821227    0.800194
H     -4.788514   -2.095527   -1.526321
H     -4.721882   -3.665284   -0.715784
H     -3.446312   -3.255516   -1.869581
H     -2.894313   -0.994186   -2.416657
H     -1.292784    0.835857   -2.670076
H      0.006308    4.053119   -0.574062
H     -1.416638    3.215995   -1.222973
H      0.025262    3.440762   -2.246201
H      1.383992   -0.780631   -1.408115
H      3.709010    1.613816    1.138529
H     -0.300373    0.568738    1.527106
H     -1.911035   -1.289219    1.772889
