32

C      1.166503   -1.983060   -2.991053
C     -0.108206   -1.976422   -2.421519
C     -0.492431   -0.993964   -1.484802
C     -1.829110   -0.992180   -0.893663
C     -2.908474   -0.407907   -1.582957
C     -4.206343   -0.382018   -1.053891
C     -4.371934   -0.970273    0.198654
N     -5.449794   -1.140599    1.021258
N     -5.118585   -1.775026    2.157384
N     -3.819187   -2.040812    2.100214
C     -3.338235   -1.560035    0.911939
C     -2.047144   -1.580215    0.367287
C      0.451475    0.000889   -1.129172
C      1.709263   -0.047595   -1.725060
C      2.107602   -1.010462   -2.650833
O      2.495636    0.968717   -1.284777
C      1.761576    1.691800   -0.397965
N      2.247478    2.778908    0.230109
C      1.358052    3.349595    1.069611
C      0.062105    2.908106    1.298785
C     -0.398681    1.778435    0.622212
C      0.487829    1.139437   -0.263598
H      1.431663   -2.756844   -3.708601
H     -0.817475   -2.752306   -2.707353
H     -2.736037    0.044706   -2.559945
H     -5.028231    0.072559   -1.596287
H     -6.412417   -0.859473    0.882929
H     -1.236280   -2.041603    0.922417
H      3.102444   -0.997808   -3.080794
H      1.733157    4.228543    1.589983
H     -0.581439    3.434722    1.996168
H     -1.407039    1.412007    0.783040
