47

C      2.191896    4.435746    6.885983
C      1.849437    3.473398    5.785568
C      2.387282    2.167374    5.794891
C      2.113355    1.250544    4.766855
C      1.302566    1.641474    3.711692
C      0.793199    2.952350    3.723992
C      1.042714    3.880492    4.719146
C      0.884598    0.870092    2.538761
C      1.195398   -0.437457    2.200952
C      0.678526   -0.975348    1.010012
C     -0.153337   -0.225734    0.141993
C     -0.666051   -0.818870   -1.108232
C     -1.552372   -1.916298   -1.112811
O     -1.922741   -2.403317    0.116393
C     -2.933696   -3.401393    0.154269
C     -1.998219   -2.440263   -2.331632
C     -0.259151   -0.268473   -2.341640
C     -0.710466   -0.787898   -3.557770
O     -0.360165   -0.310554   -4.793486
C      0.489860    0.828417   -4.839732
C     -1.584976   -1.884617   -3.554249
C     -2.085184   -2.470614   -4.846947
C     -0.467526    1.095825    0.484554
C      0.057709    1.595448    1.663252
S     -0.192291    3.219108    2.290808
O     -1.574000    3.352455    2.697885
O      0.493275    4.155609    1.426494
H      1.393102    5.171900    7.024603
H      2.317402    3.909499    7.838029
H      3.120461    4.962618    6.645950
H      3.030689    1.855689    6.616983
H      2.541538    0.253635    4.812390
H      0.623613    4.880454    4.665014
H      1.826080   -1.053775    2.834268
H      0.924803   -2.005169    0.751138
H     -3.858435   -3.049290   -0.314796
H     -2.583956   -4.331619   -0.304942
H     -3.154256   -3.613087    1.204984
H     -2.672960   -3.289910   -2.359614
H      0.428986    0.571663   -2.319317
H      0.644990    1.086485   -5.891765
H      1.469617    0.606605   -4.404201
H      0.023536    1.690440   -4.351361
H     -1.245355   -2.831685   -5.449433
H     -2.755971   -3.318463   -4.672546
H     -2.643423   -1.718027   -5.413212
H     -1.106808    1.710428   -0.142096
