24

N     -1.903749   -1.055240   -3.349124
C     -1.507782   -1.683807   -2.457740
C     -1.025554   -2.496690   -1.393396
C     -1.077351   -3.871016   -1.497774
N     -0.603815   -4.716768   -0.558681
C     -0.050773   -4.142853    0.517836
N      0.060712   -2.824618    0.726971
C     -0.449240   -2.012446   -0.232990
C     -0.286159   -0.591526    0.090447
C      0.869329    0.071561    0.452562
C      0.666612    1.465033    0.726021
C      1.585908    2.473339    1.102688
C      1.149261    3.783936    1.318278
C     -0.191589    4.109149    1.167365
C     -1.121956    3.134002    0.800832
C     -0.677265    1.815220    0.584319
S     -1.635553    0.456434    0.141186
H     -1.507899   -4.359351   -2.369854
H      0.341630   -4.801680    1.285196
H      1.832430   -0.421157    0.518070
H      2.638598    2.230546    1.224572
H      1.865163    4.550266    1.605588
H     -0.523664    5.130862    1.336664
H     -2.171275    3.390588    0.685771
