33

C      2.808939    2.179018    3.663579
C      3.906668    1.835066    2.903096
C      3.403973    1.370437    1.661436
C      3.939202    0.874628    0.452203
C      3.106532    0.482671   -0.639383
C      1.696706    0.566197   -0.578688
C      0.602897    0.279001   -1.431031
N      0.569315   -0.215174   -2.693754
C     -0.685487   -0.352625   -3.200350
C     -1.898502   -0.051555   -2.556292
C     -1.823044    0.453266   -1.247562
C     -0.545950    0.606336   -0.720074
O     -0.229555    1.077291    0.518104
C      1.125977    1.047433    0.588467
C      2.027554    1.470130    1.766913
O      1.656130    1.958185    2.974978
C     -3.194345   -0.267583   -3.203346
C     -4.299890   -0.871077   -2.580476
N     -5.549320   -1.108503   -3.101689
C     -5.849562   -0.745234   -4.380898
C     -4.843596   -0.123516   -5.143976
N     -4.953079    0.302629   -6.412423
S     -3.485795    0.964103   -6.813395
N     -2.646739    0.729486   -5.402571
C     -3.482222    0.121058   -4.540218
H      2.684342    2.575075    4.661990
H      4.940062    1.911428    3.209539
H      5.018637    0.785879    0.341262
H      3.571772    0.107232   -1.550014
H     -0.687371   -0.754122   -4.213938
H     -2.694715    0.729751   -0.666489
H     -4.207562   -1.225612   -1.551990
H     -6.846428   -0.951830   -4.746876
