35

C     -1.995397    4.232214    3.001182
C     -2.645873    3.080603    3.379751
C     -2.254431    2.062186    2.481101
N     -2.638702    0.768430    2.464242
C     -2.093996    0.018235    1.475177
C     -1.189135    0.419253    0.477834
C     -0.655196   -0.494958   -0.561802
C     -0.987042   -1.852758   -0.670616
N     -0.523906   -2.728529   -1.604853
C      0.345413   -2.276937   -2.537037
C      0.766281   -0.958329   -2.557147
C      0.264177   -0.078285   -1.571531
C      0.587181    1.288395   -1.447938
C      1.432892    2.023448   -2.238878
O      1.477194    3.310705   -1.790835
C      0.651944    3.395093   -0.704800
C      0.078083    2.174284   -0.451120
C     -0.822289    1.803713    0.552454
C     -1.364302    2.611110    1.560515
N     -1.226260    3.936504    1.903860
C      0.777505   -3.304088   -3.490967
C      0.411286   -4.640741   -3.547596
N      0.973614   -5.395978   -4.561134
C      1.766399   -4.628849   -5.271996
S      1.880830   -2.994256   -4.777275
H     -2.012657    5.231788    3.415023
H     -3.329753    2.972929    4.210104
H     -2.447897   -1.008964    1.524102
H     -1.676319   -2.327340    0.022871
H      1.462562   -0.599310   -3.304789
H      2.047152    1.816327   -3.103833
H      0.608267    4.378080   -0.263745
H     -0.645105    4.607687    1.425487
H     -0.275963   -5.117804   -2.857691
H      2.318859   -5.003584   -6.123824
