31

C      2.449732    1.009852   -1.930766
S      0.962980    2.044221   -2.050779
C     -0.070147    1.326865   -0.782334
C     -1.445227    1.231956   -1.027238
C     -2.302840    0.683273   -0.071120
C     -1.791601    0.226602    1.142168
C     -0.424877    0.328459    1.397870
N      0.089979   -0.178909    2.623760
S      1.112207   -1.525960    2.590474
O      2.276524   -1.229242    1.783015
O      1.244156   -1.963528    3.964577
C      0.139384   -2.743563    1.732407
C     -0.760589   -3.535905    2.452247
C     -1.516271   -4.496790    1.780677
C     -1.364480   -4.668103    0.403367
C     -0.451996   -3.886330   -0.307450
C      0.309427   -2.925015    0.356360
C      0.430724    0.886172    0.445734
H      2.186721   -0.051424   -1.950311
H      3.009442    1.235663   -1.019728
H      3.096196    1.220990   -2.787036
H     -1.860191    1.583076   -1.970260
H     -3.367680    0.609503   -0.277673
H     -2.466154   -0.211893    1.871812
H     -0.528391   -0.191492    3.432922
H     -0.872766   -3.417362    3.527438
H     -2.218604   -5.119205    2.330226
H     -1.952813   -5.420490   -0.117094
H     -0.331370   -4.030615   -1.378548
H      1.023525   -2.323539   -0.201500
H      1.486348    0.987695    0.680003
