37

O     -3.218376   -0.631653   -0.147424
C     -2.120132   -0.312397    0.297352
C     -0.963897   -0.124738   -0.511327
N     -0.857916   -0.138110   -1.873313
C      0.454142    0.100465   -2.240621
C      1.034798    0.178815   -3.511766
C      2.407078    0.443355   -3.580195
C      3.159274    0.622675   -2.420195
Br     5.013062    0.980284   -2.559865
C      2.572259    0.545450   -1.154221
C      1.193160    0.278939   -1.063071
C      0.274159    0.137477   -0.003126
N      0.523190    0.244622    1.365554
C     -0.549510    0.124283    2.086754
N     -1.849967   -0.104818    1.649272
C     -2.929310   -0.230277    2.615612
C     -4.050453    0.811216    2.482727
C     -3.602967    2.266587    2.643190
N     -2.940950    2.824643    1.482712
C     -1.664414    3.307392    1.430098
C     -1.489071    3.704769    0.124578
N     -2.635873    3.510119   -0.600502
C     -3.497590    2.994824    0.246449
H     -1.630280   -0.278981   -2.511187
H      0.447992    0.043850   -4.414779
H      2.881832    0.510176   -4.556393
H      3.154189    0.687262   -0.249041
H     -0.456631    0.212019    3.181236
H     -3.366717   -1.228305    2.487811
H     -2.521547   -0.189713    3.632278
H     -4.583817    0.679891    1.535109
H     -4.782542    0.597562    3.272179
H     -4.478800    2.901603    2.823674
H     -2.937022    2.374974    3.506744
H     -0.995506    3.314541    2.278898
H     -0.599000    4.121357   -0.329485
H     -4.517807    2.718174    0.012995
