33

O      0.369005    1.519750   -0.608003
C     -0.220120    0.463536   -0.774071
N     -1.433540    0.091719   -0.267921
C     -2.298279    0.825255    0.562054
C     -3.496803    0.188371    0.955985
C     -4.424051    0.835101    1.780923
C     -4.126532    2.113155    2.194137
C     -2.963652    2.739682    1.815548
C     -2.030890    2.125682    1.002413
O     -2.862713    3.995425    2.330466
C     -4.093622    4.084321    3.076389
O     -4.902494    2.892256    2.992890
O      0.247948   -0.567627   -1.524279
C      1.542080   -0.379139   -2.109784
C      2.575259   -1.086749   -1.272543
C      3.253113   -0.400236   -0.255557
C      4.195906   -1.058158    0.535571
C      4.464823   -2.408934    0.322855
C      3.787915   -3.104578   -0.677393
C      2.843884   -2.448501   -1.469245
H     -1.705968   -0.844200   -0.533024
H     -3.718982   -0.822717    0.622423
H     -5.343872    0.349001    2.085152
H     -1.131108    2.665452    0.734488
H     -3.853151    4.271554    4.129296
H     -4.675808    4.930243    2.693059
H      1.513565   -0.820130   -3.113113
H      1.799543    0.676978   -2.256082
H      3.043963    0.652554   -0.071319
H      4.716708   -0.516259    1.320753
H      5.198201   -2.920424    0.940565
H      3.992881   -4.159717   -0.838246
H      2.316413   -3.006323   -2.239639
