35

C     -3.850127   -4.147550   -1.173790
C     -3.063934   -3.788265    0.022220
C     -2.723225   -4.460739    1.174752
C     -1.945599   -3.560701    1.943625
C     -1.856426   -2.389610    1.215566
C     -1.192665   -1.145986    1.507600
N     -1.228859   -0.151019    0.678700
N     -0.617885    1.030619    1.013781
C     -0.440252    1.537979    2.296661
O     -0.709783    0.944796    3.341909
C      0.050359    2.968785    2.334597
N      1.134053    3.206523    1.399051
N      0.817773    3.400087    0.098354
C      2.000555    3.589837   -0.503260
C      2.063412    3.848546   -1.962733
C      3.056808    3.498394    0.425180
Br     4.874979    3.691630    0.019149
C      2.483316    3.239968    1.648761
C      3.074096    3.026696    2.992962
O     -2.541121   -2.531606    0.040604
H     -3.233713   -4.070487   -2.074647
H     -4.708492   -3.477704   -1.283146
H     -4.224831   -5.173365   -1.103826
H     -3.002466   -5.473782    1.428774
H     -1.503834   -3.740579    2.913805
H     -0.634482   -1.123256    2.456636
H     -0.506063    1.677536    0.225986
H      0.401920    3.211905    3.341357
H     -0.773569    3.645218    2.083673
H      2.648462    3.071445   -2.464785
H      2.530693    4.818516   -2.160214
H      1.064819    3.859486   -2.412087
H      4.164659    2.953450    2.948242
H      2.700950    2.098754    3.438412
H      2.821624    3.858785    3.657937
