42

C      5.253901    3.023612   -3.525403
C      4.481511    3.896765   -2.791327
C      3.463100    3.183043   -2.140345
C      2.434267    3.731906   -1.335531
C      2.151598    5.031969   -1.060089
O      0.978656    5.047783   -0.355983
C      0.569807    3.745109   -0.211787
C      1.493983    2.870681   -0.743424
C      1.419484    1.448342   -0.814645
C      2.398127    0.975987   -1.736754
N      2.457565   -0.311820   -2.149732
C      1.525517   -1.171302   -1.680783
C      0.555084   -0.883683   -0.726948
C     -0.349585   -1.926747   -0.325114
C     -1.333396   -1.809540    0.681536
C     -2.241082   -2.887778    1.052847
C     -1.759194   -4.051085    1.672418
C     -2.627776   -5.087606    2.022711
C     -3.990191   -4.976520    1.754250
C     -4.485038   -3.830970    1.135251
C     -3.616023   -2.794721    0.785785
C     -1.258049   -0.560384    1.311542
C     -2.007809   -0.234091    2.420011
S     -1.569015    1.293351    3.054657
C     -0.357850    1.509658    1.858622
C     -0.358587    0.510031    0.912632
C      0.548003    0.449395   -0.202192
C      3.402192    1.814066   -2.339810
S      4.706222    1.398893   -3.414998
H      6.115054    3.254449   -4.137560
H      4.658969    4.963604   -2.749241
H      2.581726    5.995538   -1.291427
H     -0.397952    3.643969    0.257277
H      1.608499   -2.168479   -2.110407
H     -0.278465   -2.891994   -0.834064
H     -0.698741   -4.152744    1.894881
H     -2.239774   -5.980554    2.506089
H     -4.666056   -5.783138    2.026485
H     -5.547276   -3.743459    0.921921
H     -4.018457   -1.909186    0.297312
H     -2.761756   -0.820348    2.928252
H      0.295489    2.361660    1.959692
