42

C      2.614445   -3.180844    4.083979
C      2.337105   -4.548264    3.540857
C      1.525417   -4.445539    2.480511
C      1.007754   -5.507439    1.658538
C      0.199983   -5.196265    0.629998
C     -0.170462   -3.796659    0.320759
N     -0.985140   -3.661394   -0.738477
C     -1.380829   -2.424965   -1.102447
C     -0.974365   -1.265804   -0.416556
C     -0.119007   -1.435039    0.694767
S      0.258199    0.096131    1.396058
C     -0.669393    0.967442    0.281342
C     -0.762460    2.392252    0.354561
C     -1.510102    3.054814   -0.557934
C     -1.593653    4.475981   -0.420906
C     -2.669271    5.267860   -0.051475
N     -2.449897    6.632098   -0.029999
C     -1.209035    6.871391   -0.388684
S     -0.250312    5.503485   -0.768686
C     -2.206549    2.269493   -1.593632
C     -2.971143    2.807721   -2.568057
Si    -3.675186    1.507030   -3.694385
C     -2.789603    0.219497   -2.663707
C     -2.097619    0.774926   -1.649401
C     -1.280221    0.134146   -0.642474
C      0.307361   -2.721415    1.091807
C      1.196985   -3.038622    2.227660
C      1.827039   -2.297848    3.156296
H      2.258910   -3.084981    5.114052
H      3.681936   -2.946298    4.038188
H      2.737464   -5.461872    3.952451
H      1.272999   -6.535518    1.876662
H     -0.213772   -5.962087   -0.016294
H     -2.035052   -2.409902   -1.962922
H     -0.238698    2.916747    1.149778
H     -3.649684    4.890622    0.215487
H     -0.808270    7.875092   -0.445165
H     -3.183053    3.852180   -2.736655
H     -3.134040    1.588217   -5.071337
H     -5.148258    1.392766   -3.582158
H     -2.887018   -0.811535   -2.944236
H      1.809592   -1.227582    3.270855
