41

C      1.093122    2.480346    5.471564
C      2.060531    2.846483    4.555742
C      1.734338    2.142642    3.399625
C      2.364018    2.114187    2.130202
C      3.472483    2.784421    1.713784
N      3.639465    2.391938    0.405562
C      2.642683    1.495047    0.037587
C      1.809950    1.296785    1.120835
C      0.670584    0.478789    1.223083
C      0.100478   -0.343628    0.231563
N      0.426152   -0.618381   -1.081549
C     -0.456242   -1.512978   -1.661096
C     -1.393553   -1.834483   -0.689763
C     -1.028833   -1.109594    0.446262
C     -1.678378   -1.094987    1.718592
N     -2.762748   -1.810269    1.975614
S     -3.081494   -1.418200    3.571475
N     -1.829545   -0.349567    3.887532
C     -1.100270   -0.250614    2.750239
C      0.062069    0.540923    2.537339
C      0.608125    1.358224    3.561732
N      0.227695    1.589781    4.869721
C     -0.350938   -1.973395   -3.023604
S     -1.506743   -3.099336   -3.668595
C     -0.768554   -3.155631   -5.214240
C      0.325598   -2.343820   -5.245112
S      1.477368   -2.009119   -6.590080
C      2.272412   -0.954691   -5.439501
C      1.698926   -0.881427   -4.164144
C      0.537027   -1.699499   -4.020437
H      0.940287    2.773234    6.501537
H      2.879647    3.531022    4.725733
H      4.146011    3.481477    2.192226
H      4.382707    2.711066   -0.202405
H      2.658074    1.108430   -0.967468
H      1.212375   -0.213555   -1.555681
H     -2.233674   -2.509404   -0.795225
H     -0.577647    1.155046    5.304139
H     -1.152472   -3.764393   -6.021179
H      3.152532   -0.428005   -5.783226
H      2.133227   -0.252450   -3.401708
