47

C      4.449914    3.486310    0.484773
C      5.308645    3.207767   -0.718035
C      4.695695    2.305586   -1.494928
C      5.111941    1.728110   -2.748079
C      4.289647    0.834194   -3.333100
C      3.008306    0.442318   -2.733391
C      2.567210    0.942649   -1.552686
C      1.275030    0.489787   -1.041496
C      0.033023    0.912738   -1.555670
C     -1.164378    0.427732   -0.983460
O     -2.423115    0.775933   -1.407846
C     -3.293246    0.102867   -0.608124
C     -4.828892    0.137897   -0.659654
N     -5.692369    0.810478   -1.469119
C     -6.986135    0.487638   -1.091456
C     -6.937511   -0.402406   -0.027014
C     -5.581181   -0.595310    0.212334
C     -4.858118   -1.373819    1.147736
C     -5.393757   -2.181575    2.109760
N     -4.313235   -2.730572    2.772546
C     -3.119978   -2.269086    2.228404
C     -3.452605   -1.418781    1.210520
C     -2.616475   -0.669770    0.320423
C     -1.271384   -0.464047    0.083941
C     -0.029088   -0.905523    0.622697
C      0.305094   -1.748705    1.634606
O      1.674695   -1.806929    1.709935
C      2.177052   -0.990254    0.732723
C      1.151570   -0.401555    0.028746
C      3.423022    1.919528   -0.892721
C      3.260348    2.595022    0.255000
H      4.969224    3.218004    1.409466
H      4.151806    4.538268    0.519953
H      6.262649    3.673044   -0.910425
H      6.057130    2.016336   -3.191537
H      4.558542    0.372085   -4.278061
H      2.425488   -0.288216   -3.289170
H     -0.014315    1.613861   -2.383854
H     -5.428269    1.438052   -2.217338
H     -7.826579    0.922033   -1.616101
H     -7.785577   -0.835128    0.484957
H     -6.408428   -2.424192    2.393171
H     -4.379543   -3.378867    3.546503
H     -2.194839   -2.617011    2.649103
H     -0.203618   -2.357221    2.360148
H      3.256431   -0.945094    0.679826
H      2.415621    2.524307    0.923008
