39

C      0.645256    2.752351   -5.104371
C      0.790768    1.907252   -3.868148
C      1.284665    2.488786   -2.691444
C      1.430897    1.737470   -1.520938
C      1.085217    0.384414   -1.507036
C      1.219922   -0.482727   -0.292668
O      0.797720   -1.640331   -0.339069
C      1.896780    0.074720    0.969564
C      3.410706    0.008999    0.808255
O      1.572623   -0.722335    2.118646
C      0.297515   -0.572784    2.563634
O     -0.512644    0.234913    2.130251
C      0.035118   -1.530029    3.676685
C     -1.209188   -1.575208    4.181823
O     -1.611841   -2.369484    5.231017
C     -0.494042   -2.974512    5.898367
C      0.552043   -3.446132    4.896880
O      1.064277   -2.341624    4.139008
C      0.585761   -0.199122   -2.681372
C      0.434216    0.546029   -3.863488
C     -0.107459   -0.129566   -5.093883
H      0.986306    3.778794   -4.932195
H     -0.404568    2.800143   -5.410355
H      1.246207    2.339583   -5.920792
H      1.558231    3.542551   -2.676300
H      1.811707    2.247244   -0.642518
H      1.587990    1.106528    1.164222
H      3.760771    0.613115   -0.033654
H      3.908012    0.359239    1.719224
H      3.740843   -1.023400    0.644396
H     -2.040464   -0.988990    3.807646
H     -0.070399   -2.235176    6.589045
H     -0.870353   -3.817296    6.486293
H      0.130783   -4.179878    4.198414
H      1.393842   -3.914106    5.416558
H      0.307983   -1.253183   -2.675353
H     -1.032971    0.356491   -5.418292
H     -0.337740   -1.183758   -4.906466
H      0.628707   -0.092172   -5.903016
