44

O     -0.984336   -6.333353    4.175477
C     -1.706701   -5.347625    4.109277
C     -2.842650   -5.193047    5.038761
C     -3.647837   -4.129252    4.993179
C     -3.449389   -3.044919    4.011432
O     -4.200969   -2.079152    3.999941
C     -2.324357   -3.171567    3.063736
C     -2.105656   -2.165265    2.111273
C     -1.042135   -2.254380    1.196450
C     -0.811223   -1.198305    0.196730
C     -0.670280   -1.500884   -1.158950
C     -0.458528   -0.486979   -2.098998
C     -0.378509    0.869135   -1.729654
C     -0.495000    1.183298   -0.370796
C     -0.723518    0.151414    0.569368
C     -0.433826    2.599457    0.139500
C      0.804974    3.339953   -0.346043
C      0.622446    3.926501   -1.720943
C      0.951503    5.286087   -1.907285
C      0.824946    5.897450   -3.152140
C      0.372694    5.157017   -4.233135
C      0.057492    3.808008   -4.061805
C      0.184243    3.163964   -2.812969
N     -0.159770    1.800899   -2.759031
C     -0.204867   -3.381753    1.264960
C     -0.420514   -4.387930    2.212142
C     -1.483803   -4.281471    3.112824
H     -2.985888   -5.990134    5.759287
H     -4.482538   -4.012611    5.674933
H     -2.779594   -1.309018    2.076118
H     -0.737515   -2.529814   -1.505412
H     -0.355892   -0.773708   -3.143390
H     -0.822631    0.412896    1.622687
H     -0.397993    2.584230    1.236569
H     -1.358870    3.124045   -0.131329
H      1.695883    2.699294   -0.338699
H      1.002620    4.151767    0.366078
H      1.310541    5.881746   -1.070178
H      1.078397    6.946922   -3.273483
H      0.265161    5.622222   -5.208915
H     -0.296517    3.252976   -4.927588
H     -0.292558    1.400032   -3.680561
H      0.637974   -3.478648    0.581433
H      0.245488   -5.248670    2.243995
