34

C      3.105505   -3.791653   -6.068042
C      1.824981   -3.283742   -5.974835
N      1.366909   -2.663651   -4.861848
C      2.231522   -2.555359   -3.813501
C      1.708986   -1.872082   -2.603188
C      0.390448   -1.375458   -2.572528
C     -0.141466   -0.723798   -1.448530
C      0.631470   -0.541098   -0.299467
C      0.129065    0.132376    0.904942
N      0.822205    0.330374    2.019398
C     -0.020202    0.985808    2.871919
N      0.239066    1.403369    4.134836
C     -0.798599    2.030348    4.740680
N     -0.836826    2.557144    6.003627
C     -2.052205    3.052134    6.123701
N     -2.801848    2.867470    4.991001
C     -2.016651    2.213775    4.090990
N     -2.316221    1.814714    2.837243
C     -1.256021    1.197331    2.275346
N     -1.144455    0.652504    1.034362
C      1.943350   -1.028160   -0.312618
C      2.471234   -1.679191   -1.438679
C      3.520755   -3.078178   -3.935560
N      3.985576   -3.701924   -5.051448
H      3.458789   -4.285741   -6.965484
H      1.123825   -3.360505   -6.797783
H     -0.251317   -1.494416   -3.445942
H     -1.166705   -0.372999   -1.511762
H     -2.444751    3.552035    6.999977
H     -3.756391    3.156432    4.839504
H     -1.875178    0.639602    0.341806
H      2.575756   -0.903306    0.566898
H      3.498242   -2.026261   -1.364635
H      4.249294   -3.020917   -3.135968
