35

O      0.915940    1.424322   -0.233665
C     -0.187240    0.881230   -0.272019
C     -1.395507    1.696435   -0.016582
C     -2.614005    1.153035    0.063304
C     -2.833375   -0.289410   -0.080748
C     -4.135361   -0.789829    0.083691
C     -4.390110   -2.155197   -0.029718
C     -3.345807   -3.029309   -0.306973
C     -2.046720   -2.539844   -0.476655
C     -1.765657   -1.163582   -0.373803
C     -0.403028   -0.584618   -0.548787
C      0.666384   -1.304609   -0.946925
N      1.961961   -0.880032   -1.185008
C      3.143750   -1.715575   -0.975236
C      3.595376   -1.892143    0.446433
C      3.360492   -1.061787    1.540394
N      3.976587   -1.682396    2.580443
C      4.151752   -1.454573    3.925142
C      4.869939   -2.436109    4.499728
S      5.353271   -3.701696    3.352190
C      4.545413   -2.819966    2.094007
N      4.352571   -2.999417    0.817238
H     -1.230878    2.760561    0.107829
H     -3.475110    1.784865    0.256996
H     -4.962996   -0.118840    0.305710
H     -5.400204   -2.536858    0.100561
H     -3.539018   -4.098508   -0.390820
H     -1.266537   -3.267377   -0.684333
H      0.584656   -2.368199   -1.148955
H      2.107281    0.096289   -0.898028
H      3.973261   -1.268265   -1.536137
H      2.971230   -2.704447   -1.418139
H      2.817872   -0.131040    1.639450
H      3.736907   -0.578102    4.398333
H      5.143054   -2.488064    5.545236
