35

C     -1.339817   -2.098895   -3.089030
N     -0.361354   -1.110758   -2.647836
C      0.202267   -0.216011   -3.576848
C     -0.177928   -0.122924   -4.923763
C      0.437671    0.788627   -5.791933
C      1.444290    1.631100   -5.329572
C      1.830794    1.569604   -3.995039
C      1.210099    0.661705   -3.131199
O      1.650668    0.684862   -1.823735
C      0.967887   -0.090035   -0.908397
C      1.353646    0.073228    0.427729
C      0.731474   -0.652156    1.452563
C      1.150159   -0.469424    2.854734
N      1.166500    0.827082    3.260368
C      1.534572    1.068274    4.526646
N      1.895093    0.141794    5.423378
C      1.880836   -1.132704    4.983019
C      1.517037   -1.502610    3.703809
C      1.557220   -2.874319    3.322936
N      1.580851   -4.000232    3.043176
C     -0.308872   -1.520227    1.089123
C     -0.688191   -1.685949   -0.252969
C     -0.047465   -0.987548   -1.282932
H     -2.349287   -1.674698   -3.067924
H     -1.132883   -2.466701   -4.099766
H     -1.325710   -3.004050   -2.472561
H     -0.968439   -0.742861   -5.332979
H      0.124259    0.839304   -6.831851
H      1.921007    2.336969   -6.004109
H      2.609264    2.228049   -3.620633
H      2.145842    0.781402    0.663316
H      1.540946    2.103305    4.851306
H      2.187405   -1.869792    5.722470
H     -0.857636   -2.077052    1.846933
H     -1.509770   -2.365189   -0.456553
