37

C     -3.411480   -2.395186   -0.432583
C     -4.790599   -3.042074   -0.266622
C     -5.130876   -3.146344    1.038281
C     -4.085732   -2.617368    1.834191
C     -3.855062   -2.466564    3.166033
S     -2.307030   -1.736665    3.397866
C     -1.981787   -1.638349    1.693683
C     -3.046019   -2.155212    0.994067
C     -0.729555   -1.051334    1.215207
C     -0.725176   -0.133842    0.167569
C      0.530386    0.343388   -0.209459
N      0.888486    1.248076   -1.180402
C      2.253373    1.422884   -1.206925
C      2.789728    0.603845   -0.212755
C      4.177134    0.599888   -0.031264
N      4.984582    1.371997   -0.803307
C      4.461806    2.158890   -1.759345
C      5.298579    2.938513   -2.535224
C      4.758917    3.750122   -3.521444
N      3.438893    3.838101   -3.787973
C      2.623943    3.077198   -3.029725
C      3.084168    2.231532   -2.015603
C      1.701541   -0.075847    0.417994
C      1.599782   -1.004383    1.460178
N      0.390608   -1.480871    1.844131
H     -2.715749   -3.082979   -0.921103
H     -3.490419   -1.462563   -0.997717
H     -5.398348   -3.371063   -1.096364
H     -6.048025   -3.569188    1.423341
H     -4.474071   -2.735333    4.009857
H     -1.637043    0.200793   -0.309721
H      0.233462    1.718581   -1.788678
H      4.673776   -0.006371    0.718541
H      6.370135    2.913564   -2.371212
H      5.399703    4.370707   -4.142118
H      1.569937    3.170958   -3.268136
H      2.457105   -1.384515    2.004186
