40

C     -3.499769    2.207185    1.791638
C     -2.978040    1.216526    0.951840
C     -1.584500    1.249486    1.161268
C     -0.443213    0.640068    0.756850
S      0.868639    1.372264    1.644008
C     -0.154745    2.472197    2.504878
C      0.326877    3.435550    3.488005
C      1.571172    4.065736    3.362228
C      2.000269    4.978301    4.326116
C      1.168961    5.240156    5.400515
N     -0.036763    4.661340    5.567747
C     -0.426556    3.779638    4.611195
C     -1.422460    2.238300    2.105693
O     -2.548505    2.876817    2.533927
C     -0.223605   -0.404412   -0.200963
C      0.857804   -1.244995   -0.377522
C      0.574685   -2.092597   -1.476117
C     -0.678565   -1.766790   -1.963342
N     -1.135871   -0.729228   -1.177553
C     -1.449554   -2.317880   -3.073674
C     -2.856275   -2.459250   -3.028264
C     -3.624206   -2.991740   -4.091166
C     -3.058670   -3.432275   -5.297940
C     -1.652014   -3.321777   -5.408454
N     -0.928223   -3.687230   -6.477511
S      0.653624   -3.349915   -6.109392
N      0.493349   -2.726397   -4.583096
C     -0.817448   -2.754870   -4.277970
H     -4.512339    2.545307    1.971745
H     -3.558346    0.577001    0.304281
H      2.217388    3.864159    2.511530
H      2.960912    5.473091    4.236909
H      1.458738    5.942665    6.176538
H     -1.401730    3.336159    4.797111
H      1.762135   -1.256410    0.217639
H      1.223957   -2.864852   -1.870653
H     -2.005798   -0.241627   -1.329881
H     -3.390328   -2.168558   -2.123406
H     -4.704646   -3.070377   -3.965000
H     -3.658106   -3.839511   -6.103441
