49

C     -0.641022    2.168206    2.698950
C      0.625298    2.423882    1.937247
C      0.744414    1.530500    0.941292
C      1.804473    1.386996   -0.046762
C      1.684279    0.382268   -0.946687
C      0.537522   -0.567434   -0.956908
C      0.511205   -1.580254   -1.928167
C     -0.576360   -2.465105   -1.930928
N     -0.836122   -3.535095   -2.771737
C     -2.020390   -4.154102   -2.438916
C     -2.687712   -5.273403   -3.005574
C     -3.915763   -5.726996   -2.475286
C     -4.342265   -4.967791   -1.393032
C     -5.499935   -5.181234   -0.682558
N     -5.563002   -4.218067    0.311709
C     -4.460055   -3.386994    0.249567
C     -3.724598   -3.857749   -0.795960
C     -2.487382   -3.426334   -1.355516
C     -1.626464   -2.375549   -1.009569
C     -1.590385   -1.355242   -0.038217
C     -0.512198   -0.456190   -0.013678
C     -0.404905    0.630865    0.970419
C     -1.219090    0.984978    1.978393
C      2.936638    2.252236   -0.161141
S      4.547387    1.685792    0.190783
C      5.272098    3.220074   -0.135016
C      4.318339    4.131377   -0.491401
C      4.262809    5.569443   -0.879307
C      2.757268    5.740593   -1.104048
C      2.091983    4.584922   -0.877356
C      3.017153    3.576802   -0.498975
H     -0.430091    1.927654    3.745012
H     -1.313727    3.029164    2.646066
H      1.326455    3.210087    2.173137
H      2.434896    0.238076   -1.719115
H      1.307678   -1.680579   -2.658750
H     -0.234670   -3.822705   -3.529123
H     -2.253322   -5.791457   -3.857263
H     -4.449107   -6.575157   -2.882384
H     -6.286200   -5.917315   -0.778922
H     -6.311005   -4.135745    0.987502
H     -4.335256   -2.573545    0.948083
H     -2.394627   -1.273085    0.682406
H     -2.146027    0.508580    2.255234
H      6.340676    3.352034   -0.041222
H      4.818066    5.764436   -1.800901
H      4.612361    6.222134   -0.074647
H      2.301553    6.671483   -1.406555
H      1.024759    4.436339   -0.966967
