42

C     -4.404991   -5.025547    2.864963
C     -4.809023   -3.820290    3.395752
C     -3.871670   -2.860543    2.917724
S     -3.565076   -1.153080    3.040623
C     -2.157058   -1.265544    2.011753
C     -2.015033   -2.595302    1.642981
C     -0.947772   -2.994871    0.798713
C     -0.566549   -4.194844    0.284547
O      0.554498   -3.984558   -0.476268
C      0.846210   -2.645550   -0.416666
C     -0.069304   -1.984319    0.372653
C     -0.099900   -0.605238    0.671923
C      0.865141    0.358078    0.173994
C      0.829281    1.740416    0.470056
C      1.795476    2.706854   -0.037207
C      1.405414    3.728011   -0.918030
C      2.336842    4.643706   -1.413853
C      3.674662    4.549416   -1.037838
C      4.081586    3.540179   -0.168264
C      3.148840    2.624720    0.325968
C     -0.251291    2.040650    1.309896
C     -0.558631    3.281793    1.815659
N     -1.679559    3.140153    2.594893
C     -2.087748    1.823959    2.603804
C     -1.219955    1.099175    1.819149
C     -1.225900   -0.282108    1.542733
C     -2.956493   -3.504317    2.133977
N     -3.283431   -4.838201    2.100063
H     -4.829999   -6.015652    2.970374
H     -5.659882   -3.644906    4.039547
H     -0.909986   -5.216427    0.325137
H      1.717895   -2.348190   -0.982446
H      1.664923    0.007108   -0.477843
H      0.365035    3.810287   -1.226997
H      2.016239    5.427604   -2.094813
H      4.399833    5.261420   -1.422861
H      5.124500    3.464486    0.127884
H      3.482688    1.846424    1.009343
H     -0.087584    4.249024    1.701572
H     -2.136099    3.890013    3.097893
H     -2.958053    1.556559    3.182988
H     -2.764848   -5.539322    1.588215
