29

O     -2.013404    2.696330    0.920615
C     -1.706129    1.669210    0.324060
C     -2.654419    1.027902   -0.621180
C     -3.919803    1.583852   -0.836380
C     -4.797283    0.973879   -1.731607
C     -4.407718   -0.180779   -2.411215
C     -3.141923   -0.734048   -2.194427
C     -2.259825   -0.145955   -1.282938
N     -0.967901   -0.663425   -1.097857
C     -0.064467   -0.134766   -0.161924
C      1.196537   -0.714487    0.019639
C      2.126630   -0.159401    0.916438
C      3.431228   -0.789225    1.097787
N      3.794589   -1.936883    0.421395
C      5.006162   -2.149900    0.867561
O      5.430227   -1.231172    1.768420
N      4.383886   -0.323968    1.924683
C      1.780082    1.003335    1.622736
C      0.533208    1.604231    1.434086
C     -0.379051    1.038812    0.539389
H     -4.217341    2.488983   -0.311812
H     -5.781295    1.403169   -1.904109
H     -5.089712   -0.648443   -3.117629
H     -2.853079   -1.624600   -2.746040
H     -0.808821   -1.615522   -1.402995
H      1.462356   -1.606915   -0.543597
H      5.694230   -2.942923    0.617368
H      2.479907    1.457203    2.322834
H      0.277400    2.509960    1.979928
