41

C     -2.770994   -2.740496   -0.505488
C     -1.804808   -1.614835   -0.351560
C     -2.025418   -0.287846   -0.661101
C     -0.815907    0.426128   -0.470974
C     -0.580622    1.848590   -0.692473
S     -1.376901    2.868586    0.372108
N      0.269782    2.226033   -1.730125
C      0.683827    3.621408   -1.947714
C      1.979160    3.696028   -2.762496
O      1.891721    3.064905   -4.046938
C      0.930800    2.003229   -4.108313
C      0.723596    1.287388   -2.769281
C      0.123707   -0.493027   -0.009297
C      1.513160   -0.210213    0.466973
N     -0.480416   -1.749672    0.056347
C      0.149485   -2.962954    0.463438
C      1.421178   -3.293227   -0.023486
C      2.034878   -4.484227    0.374711
C      1.381382   -5.340423    1.258885
Cl     2.140127   -6.804686    1.748199
C      0.117513   -5.018037    1.748986
C     -0.501518   -3.829756    1.351001
H     -3.567415   -2.465402   -1.206100
H     -2.290255   -3.637879   -0.906328
H     -3.245802   -2.978108    0.450843
H     -2.962586    0.124829   -1.015721
H      0.822898    4.129210   -0.988879
H     -0.132227    4.113174   -2.490124
H      2.798322    3.215180   -2.215041
H      2.264116    4.739980   -2.926665
H     -0.014694    2.431268   -4.461444
H      1.272899    1.293306   -4.867903
H      1.674317    0.868568   -2.421649
H      0.005099    0.473193   -2.897306
H      2.243112   -0.422101   -0.319366
H      1.762411   -0.794528    1.357989
H      1.625669    0.843392    0.743439
H      1.931728   -2.661060   -0.744600
H      3.016917   -4.740944   -0.013979
H     -0.387421   -5.680851    2.446957
H     -1.468280   -3.577908    1.778837
