33

C     -1.493292    0.656820   -2.171910
C     -2.252786    1.222234   -3.172756
C     -1.988555    0.813982   -4.486113
C     -0.985331   -0.138806   -4.778302
C     -0.210828   -0.716998   -3.767040
C     -0.468827   -0.317009   -2.475593
C      0.144402   -0.716569   -1.224857
N      1.055159   -1.490747   -0.691251
C      0.970444   -1.212386    0.700349
C      1.827107   -1.878015    1.668098
C      2.269594   -3.182192    1.406719
C      3.094126   -3.851571    2.314232
C      3.492153   -3.219433    3.490065
C      3.072110   -1.917314    3.755154
C      2.246230   -1.247959    2.847005
C     -0.029004   -0.279437    0.970455
N     -0.490513   -0.012055   -0.269479
C     -1.485089    0.833442   -0.704459
C     -2.130627    1.529562    0.244161
C     -1.708129    1.300259    1.646168
C     -0.712728    0.439413    1.995074
H     -3.024428    1.952976   -2.959774
H     -2.567921    1.238501   -5.304382
H     -0.812749   -0.427850   -5.813592
H      0.559559   -1.447632   -3.988179
H      1.969895   -3.683168    0.487830
H      3.426580   -4.863326    2.098061
H      4.136599   -3.738265    4.194801
H      3.394099   -1.417940    4.665211
H      1.956742   -0.223901    3.063529
H     -2.933338    2.224199    0.031132
H     -2.245270    1.852977    2.412580
H     -0.447029    0.288022    3.035863
