47

C      2.450534    3.092069    1.913449
C      1.981980    3.638665    0.597050
C      1.391949    2.672511   -0.118349
C      0.787320    2.659649   -1.406471
C      0.260474    1.449869   -1.844972
O     -0.291276    1.553167   -3.085148
C     -0.124255    2.855983   -3.470742
C     -0.551536    3.392392   -4.691887
C     -0.311057    4.750749   -4.951834
C      0.355440    5.491845   -3.947229
N      0.670438    6.799503   -4.018617
S      1.443167    7.187784   -2.585454
N      1.412810    5.706540   -1.805288
C      0.797825    4.924019   -2.675838
C      0.529462    3.538338   -2.459989
C      0.254791    0.176957   -1.131625
N     -0.314694   -0.891544   -1.735181
C     -0.293947   -2.046628   -1.030051
C      0.267669   -2.186089    0.240239
C      0.845612   -1.059071    0.836930
C      0.848091    0.153772    0.149836
C      1.423489    1.417528    0.663830
C      2.033101    1.652153    1.837937
C      0.234932   -3.479153    0.939240
C      1.357167   -4.237397    0.926406
C      1.437845   -5.542322    1.580877
C      0.394235   -6.077545    2.241411
C     -0.846445   -5.332503    2.305426
C     -1.965837   -5.741056    2.930634
Si    -3.322357   -4.461401    2.761620
C     -2.135038   -3.402785    1.772910
C     -0.936490   -4.007410    1.645097
H      3.536151    3.182293    2.013303
H      1.959573    3.600794    2.748215
H      2.119985    4.667053    0.308162
H     -1.058034    2.764406   -5.418529
H     -0.620539    5.216595   -5.880525
H     -0.759645   -2.892496   -1.530674
H      1.279973   -1.139397    1.828994
H      2.211414    0.939057    2.627891
H      2.257882   -3.904656    0.415821
H      2.380784   -6.076598    1.514492
H      0.464306   -7.046637    2.721961
H     -2.119746   -6.661986    3.469499
H     -3.680287   -3.845772    4.062242
H     -4.459609   -4.950620    1.945849
H     -2.435703   -2.442232    1.385665
