47

Si     4.499779   -4.139685   -1.663062
C      3.445909   -5.472496   -0.912251
C      2.277886   -4.975264   -0.463197
C      1.297758   -5.776566    0.238924
C      0.181368   -5.212149    0.727218
C     -0.082993   -3.781984    0.521531
C     -1.247396   -3.152835    0.960209
C     -2.302269   -3.725569    1.635161
O     -3.300070   -2.808870    1.831273
C     -2.881517   -1.626598    1.277565
C     -1.626776   -1.808029    0.786197
C     -0.735353   -0.951329    0.075076
C      0.414844   -1.556206   -0.450825
N      0.976019   -0.568384   -1.244333
C      0.290478    0.628585   -1.156737
C      0.541546    1.867789   -1.801716
C     -0.255397    3.004844   -1.537360
C     -0.022988    4.279979   -2.184496
C      0.390789    4.638373   -3.453634
C      0.473518    6.051993   -3.472572
C      0.120323    6.469685   -2.212202
O     -0.175080    5.404784   -1.424306
C     -1.255608    2.751902   -0.589849
C     -2.174433    3.654973   -0.096704
N     -2.930498    3.019238    0.866149
C     -2.527481    1.706343    0.997028
C     -1.546443    1.530525    0.067394
C     -0.750358    0.391349   -0.267720
C      0.793420   -2.913358   -0.205498
C      2.070132   -3.515795   -0.684599
C      3.135511   -2.911600   -1.254372
H      4.677754   -4.295246   -3.126725
H      5.736783   -3.872604   -0.891239
H      3.793195   -6.490633   -0.835128
H      1.490284   -6.834461    0.384943
H     -0.539410   -5.816618    1.264036
H     -2.518329   -4.714776    2.012383
H     -3.610594   -0.835296    1.304307
H      1.765248   -0.705978   -1.852328
H      1.376362    1.948614   -2.494304
H      0.599265    3.958760   -4.267608
H      0.758707    6.686654   -4.299355
H      0.035923    7.437437   -1.738260
H     -2.347656    4.700600   -0.312477
H     -3.651855    3.463254    1.419243
H     -2.967400    1.086370    1.759045
H      3.313514   -1.875671   -1.465819
