44

O     -0.788076   -3.443527    5.789331
C      0.398712   -3.379516    5.473943
C      1.469980   -3.957421    6.361260
C      0.795760   -2.720228    4.192861
C     -0.219068   -2.192809    3.380037
C      0.134876   -1.577042    2.186307
C      1.484817   -1.478067    1.789108
C      2.492285   -1.996062    2.585915
C      2.144024   -2.619148    3.792024
C      1.551993   -0.794393    0.516243
C      2.634639   -0.465430   -0.273653
C      2.402283    0.210042   -1.481569
C      1.105980    0.575772   -1.919981
N      0.934682    1.242927   -3.143231
C      1.796815    2.409931   -3.398704
C      1.428602    3.565469   -2.561385
C      1.128400    4.504892   -1.875308
C     -0.409619    1.335939   -3.710425
C      0.023781    0.208673   -1.100275
C      0.250359   -0.459764    0.101106
C     -0.773849   -0.930897    1.136811
C     -1.541506    0.255536    1.730791
C     -1.734049   -1.961393    0.532098
H      1.002709   -4.399997    7.246663
H      2.012704   -4.747206    5.835522
H      2.150421   -3.170262    6.696031
H     -1.262132   -2.264024    3.677340
H      3.533766   -1.924573    2.288772
H      2.946212   -3.019947    4.405250
H      3.646742   -0.725446    0.015584
H      3.266342    0.422987   -2.105316
H      1.705503    2.693625   -4.455018
H      2.856864    2.170585   -3.265585
H      0.860172    5.330395   -1.257552
H     -1.045266    2.018792   -3.135852
H     -0.364352    1.707851   -4.740349
H     -0.886967    0.350597   -3.759273
H     -0.996818    0.453961   -1.370595
H     -2.140253    0.765958    0.967653
H     -2.224547   -0.068332    2.524516
H     -0.863042    0.999498    2.166116
H     -2.423476   -2.355749    1.287487
H     -1.194347   -2.815058    0.103999
H     -2.338643   -1.521452   -0.269363
