36

C      2.668889   -0.324299   -2.858612
C      1.148211   -0.067232   -2.935561
C      0.899827    1.340230   -3.519322
C      0.563865   -1.088333   -3.937756
C      0.535400   -0.157982   -1.526714
C      0.981173    0.703163   -0.506146
C      0.443105    0.649261    0.784550
C     -0.551723   -0.277196    1.103034
C     -1.020992   -1.123913    0.094982
C     -0.481784   -1.068146   -1.197743
C     -1.098602   -0.312096    2.456801
N     -1.506182    0.742597    3.144266
N     -1.972809    0.322816    4.367914
C     -1.815768   -0.979284    4.428244
N     -1.239522   -1.437909    3.250536
C     -0.897732   -2.778028    3.046239
C     -1.158975   -3.677772    4.010409
C     -1.791462   -3.230031    5.241905
C     -2.103283   -1.934536    5.441366
H      3.186710    0.427557   -2.253097
H      3.124651   -0.301168   -3.855451
H      2.881155   -1.305413   -2.417419
H      1.378799    2.125852   -2.924710
H      1.297528    1.421593   -4.537705
H     -0.172248    1.566557   -3.560738
H      1.036074   -0.989852   -4.922653
H      0.726785   -2.119708   -3.603807
H     -0.512918   -0.941787   -4.081992
H      1.755970    1.441544   -0.702876
H      0.807052    1.341490    1.542345
H     -1.828523   -1.825655    0.291997
H     -0.891318   -1.750431   -1.937859
H     -0.418279   -3.044909    2.113588
H     -0.906499   -4.727454    3.901045
H     -2.001323   -3.973925    6.005112
H     -2.568203   -1.594118    6.359689
