29

O     -4.182331   -1.550381   -1.747158
C     -3.880043   -0.561797   -1.097058
C     -2.539027   -0.356070   -0.484564
C     -2.219530    0.785119    0.261992
C     -0.942629    0.928713    0.816730
C     -1.567526   -1.347168   -0.670675
C     -0.292368   -1.198987   -0.115827
C      0.032423   -0.062058    0.636161
C      1.371659    0.089620    1.221613
C      1.544729    0.311598    2.552832
N      2.889326    0.386902    2.707272
C      3.903039    0.569551    3.619518
C      5.178579    0.497092    2.903103
C      4.853498    0.257063    1.497859
N      3.489283    0.194135    1.398446
N      2.470093   -0.010827    0.386061
O     -4.696442    0.488623   -0.828725
C     -6.004329    0.362874   -1.388075
H     -2.949361    1.575234    0.417659
H     -0.708640    1.830366    1.378544
H     -1.795424   -2.239962   -1.249581
H      0.448846   -1.980536   -0.270070
H      0.835196    0.409871    3.357616
H      3.690446    0.730444    4.662779
H      6.163375    0.600055    3.331016
H      5.469625    0.135672    0.626843
H     -5.950876    0.304663   -2.479765
H     -6.575700    1.254926   -1.116899
H     -6.514854   -0.513552   -0.976657
