33

C     -0.266172   -0.314563   -0.840078
C     -0.614532    0.098331    0.591653
C      0.217273    1.056189    1.046798
C      1.157977    1.350021   -0.011580
C      0.917355    0.567040   -1.151645
C      1.682659    0.643406   -2.336962
C      1.408091   -0.159433   -3.457437
C      2.179639   -0.066757   -4.621107
C      3.244085    0.829270   -4.695261
C      3.547401    1.641886   -3.605530
C      2.778447    1.559241   -2.426459
C      3.060636    2.385577   -1.272498
N      4.037670    3.303557   -1.150130
S      3.900185    3.947609    0.373936
N      2.598269    3.101184    0.961843
C      2.214964    2.271661   -0.021719
C     -1.718159   -0.519855    1.288629
C     -2.545424   -1.482604    0.821483
C     -3.586108   -1.937936    1.731286
C     -3.600396   -1.342276    2.935888
Si    -2.232197   -0.068509    3.076883
H      0.019047   -1.370723   -0.886190
H     -1.094664   -0.100876   -1.523377
H      0.236217    1.552798    2.003608
H      0.586285   -0.872131   -3.441879
H      1.946579   -0.699306   -5.474732
H      3.838579    0.895033   -5.603156
H      4.380270    2.339158   -3.671189
H     -2.479200   -1.922944   -0.165983
H     -4.288381   -2.706481    1.431780
H     -4.284382   -1.533795    3.747341
H     -2.761759    1.314152    3.183999
H     -1.206376   -0.455302    4.077748
