43

C     -5.305225    3.173719   -3.819392
C     -5.211025    3.124336   -5.205954
C     -4.116931    2.368493   -5.666137
N     -3.788606    2.185233   -6.955017
S     -2.421140    1.243866   -6.962271
N     -2.169959    1.050120   -5.335347
C     -3.180894    1.679636   -4.707716
C     -3.423241    1.784981   -3.311531
N     -4.478587    2.570558   -2.908545
C     -2.596520    1.175276   -2.290328
C     -2.001956    1.918278   -1.246525
C     -1.189222    1.346925   -0.239792
C     -0.891400   -0.033790   -0.154257
C     -0.037675   -0.592445    0.900332
C     -0.455741   -1.670172    1.692740
C      0.361447   -2.187455    2.706917
C      1.629026   -1.645504    2.970163
C      2.044620   -0.564682    2.179370
C      1.227816   -0.048437    1.164376
C      2.468279   -2.182716    4.042977
C      2.006600   -2.451911    5.342648
N      2.706296   -2.959142    6.412061
C      4.026964   -3.271650    6.288640
C      4.644483   -3.059237    5.041442
N      5.928477   -3.308562    4.736841
S      6.119432   -2.893538    3.142399
N      4.591471   -2.369459    2.774436
C      3.845757   -2.499962    3.888214
C     -1.487907   -0.844781   -1.169099
N     -1.367573   -2.178334   -1.307101
S     -2.259028   -2.616756   -2.628973
N     -2.865612   -1.150005   -3.092215
C     -2.361080   -0.228628   -2.251016
H     -6.112113    3.745678   -3.360623
H     -5.900496    3.628194   -5.867583
H     -2.176490    2.995817   -1.211732
H     -0.783365    2.018432    0.519389
H     -1.429698   -2.127604    1.525789
H     -0.007293   -3.037439    3.278540
H      3.018878   -0.106106    2.341070
H      1.604054    0.781519    0.569024
H      0.965346   -2.239026    5.591630
H      4.537583   -3.668785    7.155637
