39

Si    -0.035805   -1.877239   -0.202034
C     -0.130992   -0.003232    0.032188
C      0.756458    0.409971    0.960940
C      1.558200   -0.644105    1.570297
C      1.303442   -1.890543    1.122830
C      1.944715   -3.058536    1.572681
S      2.761865   -4.196161    0.539325
C      3.233911   -5.229285    1.854482
C      2.759194   -4.682124    2.990604
C      2.714718   -4.908900    4.387516
C      1.983026   -3.844062    4.955441
N      1.554545   -2.940065    3.985319
C      2.058748   -3.504874    2.846579
C     -1.009845    0.828499   -0.699529
S     -0.473017    2.364230   -1.358305
C     -1.999822    2.752535   -2.086505
C     -2.286170    3.953121   -2.830712
C     -3.529934    4.471358   -3.154163
C     -3.457458    5.679480   -3.908809
C     -2.157444    6.057436   -4.145424
S     -1.040846    4.962817   -3.461531
C     -2.840390    1.732815   -1.805833
O     -4.148380    1.613494   -2.178263
C     -4.454174    0.397966   -1.600916
C     -3.388481   -0.193710   -0.915065
C     -2.311050    0.700910   -1.064854
H     -1.287112   -2.551792    0.236997
H      0.457868   -2.252042   -1.552260
H      0.896305    1.441085    1.265170
H      2.306442   -0.399421    2.315583
H      3.803554   -6.132248    1.690861
H      3.145570   -5.734676    4.938056
H      1.726834   -3.660025    5.991174
H      1.010445   -2.089638    4.065340
H     -4.465753    4.010311   -2.861662
H     -4.316824    6.238792   -4.257659
H     -1.807057    6.925013   -4.687714
H     -5.476877    0.081542   -1.760949
H     -3.425287   -1.136369   -0.388445
