39

Si     0.920113   -4.136929   -0.938594
C      0.368931   -3.004146    0.426098
C     -0.050452   -1.808230   -0.043128
C     -0.455260   -0.660421    0.805693
C     -0.533345   -0.776155    2.212267
C     -0.882168    0.300214    3.046727
C     -1.156545    1.516964    2.413446
C     -1.094027    1.651235    1.019222
C     -0.747861    0.576130    0.176537
C     -0.722810    0.706902   -1.317087
C     -1.019156    1.906867   -1.976131
N     -1.091730    2.119695   -3.309925
C     -0.889160    1.021605   -4.065649
C     -0.951137    0.914807   -5.473948
C     -0.715336   -0.401052   -5.792395
N     -0.512943   -1.081181   -4.618691
C     -0.574616   -0.229840   -3.536638
C     -0.427504   -0.405391   -2.145797
C     -0.003829   -1.677296   -1.521810
C      0.516718   -2.760531   -2.139801
C     -0.954282    0.155101    4.516658
N     -0.672022   -1.043030    5.041882
C     -0.755948   -1.104646    6.368548
N     -1.085786   -0.105271    7.180937
C     -1.344327    1.035413    6.548818
N     -1.297564    1.231789    5.233537
H      2.371438   -4.434279   -0.895824
H      0.027798   -5.307021   -1.117729
H      0.455104   -3.330764    1.448771
H     -0.317133   -1.731994    2.683587
H     -1.432908    2.389980    3.004086
H     -1.336477    2.633321    0.624320
H     -1.230552    2.817303   -1.424008
H     -1.164908    1.716062   -6.167225
H     -0.690930   -0.914190   -6.744372
H     -0.385087   -2.079067   -4.563044
H      0.751924   -2.917256   -3.174250
H     -0.534243   -2.060669    6.830596
H     -1.619318    1.886354    7.162782
