50

C     -6.135812   -2.181699   -1.540800
C     -4.677488   -2.134939   -1.153817
C     -3.793513   -3.057538   -1.736821
C     -2.443589   -3.092875   -1.368290
C     -1.945209   -2.188556   -0.429932
C     -0.502554   -2.255577   -0.037561
C     -2.810419   -1.214986    0.099344
O     -2.271744   -0.279052    0.955509
C     -2.076333    0.970599    0.268281
C     -1.051136    1.850280    1.002780
O     -1.589840    2.316975    2.253620
C      0.278837    1.106621    1.264236
N      1.298102    1.928981    1.966246
C      2.472263    1.098695    2.321643
C      3.744966    1.351067    1.489438
C      3.413448    1.634737    0.023370
C      4.670839    1.870275   -0.805186
C      2.441740    2.825447   -0.092323
C      1.713387    3.127673    1.225739
C     -4.189306   -1.216838   -0.196802
C     -5.123498   -0.242179    0.471067
H     -6.291589   -2.817241   -2.416382
H     -6.731336   -2.594234   -0.712921
H     -6.504765   -1.183736   -1.798247
H     -4.151902   -3.776956   -2.468998
H     -1.786102   -3.836757   -1.818475
H     -0.382689   -2.114858    1.049767
H     -0.073179   -3.242214   -0.284579
H      0.071274   -1.495287   -0.568346
H     -1.716077    0.797092   -0.757896
H     -3.030133    1.505865    0.227329
H     -0.887895    2.736849    0.376766
H     -0.810875    2.538894    2.803386
H      0.668935    0.704565    0.326013
H      0.052036    0.257607    1.923442
H      2.713874    1.289700    3.378745
H      2.227011    0.031225    2.272063
H      4.400409    0.478247    1.563014
H      4.300015    2.195379    1.912427
H      2.915578    0.745985   -0.386680
H      5.223989    2.748617   -0.455598
H      5.334707    1.008918   -0.749263
H      4.414064    2.030290   -1.854262
H      1.708644    2.613606   -0.884813
H      2.971530    3.732401   -0.405430
H      2.376609    3.719145    1.875220
H      0.863031    3.796050    1.032733
H     -6.086044   -0.717382    0.724869
H     -4.714380    0.135776    1.421612
H     -5.307680    0.601768   -0.197022
