31

C     -3.183913    0.090095    3.448214
C     -2.985392    0.135954    1.952875
C     -1.601949    0.423153    1.458978
C     -1.414879    0.438340    0.126132
N     -0.225845    0.710305   -0.540770
C      1.099925    0.386137   -0.194869
C      2.137548    1.037036   -0.882284
C      3.482040    0.802730   -0.570066
C      3.820899   -0.096902    0.442146
C      5.249954   -0.343520    0.815136
C      2.789725   -0.728635    1.136845
F      3.081431   -1.584895    2.127110
C      1.449129   -0.496166    0.828987
N     -2.549528    0.228840   -0.687404
N     -2.624164    0.238821   -2.048837
C     -3.917647   -0.014288   -2.248635
N     -4.675016   -0.177516   -1.130647
C     -3.814623   -0.021288   -0.147858
N     -4.022940   -0.073174    1.198529
H     -2.244470    0.244646    3.984849
H     -3.891612    0.871134    3.741088
H     -3.593234   -0.885086    3.727926
H     -0.820179    0.632368    2.175522
H     -0.360416    0.799045   -1.553155
H      1.902352    1.752079   -1.668662
H      4.256205    1.331663   -1.121611
H      5.925883   -0.057639    0.002339
H      5.418857   -1.406051    1.019018
H      5.511004    0.237487    1.705050
H      0.703729   -1.049214    1.387580
H     -4.326269   -0.081521   -3.249329
