38

C     -2.796746    3.612186    0.283295
C     -1.414784    3.148626   -0.092182
C     -0.884677    2.001276    0.524709
C      0.394295    1.542157    0.200526
C      0.963643    0.350003    0.829867
C      2.192901   -0.083293    0.499666
C      2.835855   -1.294456    1.118099
C      2.897549   -2.481994    0.151801
N      3.504218   -3.634926    0.846959
S      3.251023   -5.161655    0.186693
C      1.716638   -5.629635    0.957279
O      3.043352   -5.015909   -1.235298
O      4.298385   -6.000782    0.723955
C      3.006038    0.670979   -0.504883
O      4.138220    0.309565   -0.810067
N      2.431726    1.776332   -1.069313
C      1.149775    2.235483   -0.747123
C      0.641477    3.374714   -1.369245
C     -0.643592    3.842112   -1.049266
C     -1.169579    5.074173   -1.735035
H     -2.758091    4.622901    0.701593
H     -3.451911    3.603217   -0.593452
H     -3.248544    2.960412    1.038641
H     -1.478237    1.465852    1.262811
H      0.361324   -0.171268    1.566361
H      2.282511   -1.594882    2.018155
H      3.844364   -1.040167    1.469233
H      3.504071   -2.242961   -0.727698
H      1.883204   -2.733482   -0.177812
H      4.488920   -3.520001    1.099822
H      1.470182   -6.641033    0.626815
H      1.845395   -5.614792    2.041101
H      0.933456   -4.937123    0.644513
H      2.995214    2.269618   -1.748004
H      1.241820    3.903687   -2.105073
H     -0.442180    5.480657   -2.445795
H     -1.383766    5.856246   -0.999850
H     -2.080043    4.838291   -2.294883
