35

C     -0.045595   -2.186288    0.646864
C      0.961910   -1.880813   -0.432155
C      1.486026   -2.961066   -1.161553
C      2.433591   -2.752463   -2.154792
C      2.841662   -1.457897   -2.454255
C      2.316192   -0.347429   -1.765234
C      2.741111    1.007066   -2.266542
C      1.408602   -0.562177   -0.705335
N      0.858621    0.481313    0.079193
C      1.516362    1.608670    0.542065
O      2.712099    1.854876    0.414777
C      0.610640    2.544113    1.354202
O     -0.516495    3.056219    0.643452
C     -1.616389    2.248204    0.595848
O     -1.635193    1.115651    1.077010
C     -2.744883    2.846799   -0.093119
N     -2.690689    4.056665   -0.669072
O     -3.951066    4.251173   -1.219238
N     -4.777382    3.162317   -0.981666
C     -4.037213    2.303857   -0.285223
N     -4.477903    1.109593    0.157056
H     -0.200031   -3.264463    0.763397
H      0.299710   -1.803486    1.612753
H     -1.014131   -1.741687    0.396755
H      1.165260   -3.978788   -0.949608
H      2.843288   -3.594340   -2.706351
H      3.563866   -1.309020   -3.255269
H      1.964983    1.761512   -2.109518
H      3.676502    1.316846   -1.792493
H      2.908796    0.978879   -3.349922
H      0.015081    0.250415    0.597743
H      0.307644    2.044248    2.282412
H      1.212009    3.411037    1.650178
H     -3.834985    0.395585    0.490744
H     -5.349987    0.746916   -0.215898
