37

C     -3.391572    1.220686    5.172931
C     -3.997362    2.276863    4.267824
O     -3.958029    1.840191    2.900615
C     -2.798467    2.100671    2.223797
O     -1.835963    2.688638    2.697293
C     -2.930207    1.599122    0.804096
C     -1.621033    1.504302    0.091076
C     -0.788165    2.549423   -0.266006
S      0.582376    1.948327   -1.097362
C     -0.017770    0.366333   -0.929976
N      0.625323   -0.742120   -1.416835
C      1.853517   -0.784817   -2.032773
O      2.626663    0.144073   -2.226642
C      2.276239   -2.145220   -2.473151
C      1.345285   -3.079979   -2.982422
C      1.767250   -4.349841   -3.391654
C      3.109968   -4.644309   -3.287931
C      4.019187   -3.730904   -2.807364
C      3.638130   -2.471696   -2.397061
O      5.287527   -4.220736   -2.795317
C      5.075639   -5.543058   -3.331715
O      3.692980   -5.821126   -3.639134
N     -1.172223    0.252294   -0.313917
H     -2.335790    1.057204    4.934908
H     -3.470791    1.517708    6.222482
H     -3.900752    0.260778    5.037850
H     -3.500170    3.245775    4.391024
H     -5.051437    2.421880    4.526236
H     -3.596515    2.278230    0.260885
H     -3.394539    0.606181    0.829801
H     -0.908746    3.606244   -0.073701
H      0.128842   -1.595832   -1.209835
H      0.295364   -2.819990   -3.093548
H      1.067176   -5.076847   -3.788896
H      4.370812   -1.761052   -2.027640
H      5.667019   -5.649142   -4.248510
H      5.426447   -6.279052   -2.599192
