26

S      2.857460    1.863647    2.212765
C      1.611765    0.990851    1.490162
N      1.969781   -0.124545    0.761759
C      1.260050   -0.944883   -0.139388
C      0.027449   -0.620680   -0.709234
C     -0.595406   -1.494278   -1.608328
C      0.015386   -2.695687   -1.958048
C      1.254964   -3.012681   -1.412936
Br     2.101395   -4.634563   -1.891291
C      1.879968   -2.143943   -0.516258
C      0.194017    1.341612    1.718774
C     -0.303225    2.586229    1.312952
C     -1.640344    2.906941    1.550757
C     -2.474185    1.993190    2.197736
C     -1.975345    0.757693    2.613587
C     -0.639574    0.430170    2.379597
H      2.950782   -0.359764    0.884767
H     -0.469893    0.321092   -0.510529
H     -1.555630   -1.226320   -2.043063
H     -0.474996   -3.366647   -2.658092
H      2.847485   -2.414782   -0.101234
H      0.340852    3.303851    0.810807
H     -2.031586    3.871531    1.236556
H     -3.514806    2.247943    2.384948
H     -2.626328    0.052317    3.124138
H     -0.252456   -0.529998    2.711365
