31

C      0.423473    3.355846    0.071405
N     -0.888746    2.866456   -0.289873
N     -1.890483    3.764860   -0.412803
C     -2.967619    3.036438   -0.737155
C     -2.603451    1.638814   -0.802446
C     -3.458324    0.586470   -1.138620
C     -4.769050    1.038443   -1.398576
C     -5.166138    2.407830   -1.330136
C     -4.282455    3.456735   -0.999759
C     -1.262864    1.556097   -0.495925
C     -0.363002    0.447327   -0.385941
C     -0.605082   -0.839240    0.046036
C      0.619941   -1.546570   -0.040667
C      1.589445   -0.669266   -0.506495
O      0.962008    0.540609   -0.709935
C      2.976540   -0.810023   -0.801675
C      3.808889   -1.776697   -0.371549
C      3.427408   -2.841337    0.488936
N      3.113170   -3.713192    1.187538
C      5.172808   -1.724095   -0.781947
N      6.277987   -1.660208   -1.128904
H      0.800346    2.771543    0.914330
H      1.076814    3.260497   -0.799067
H      0.351603    4.406686    0.365554
H     -3.182729   -0.455212   -1.215628
H     -5.524713    0.300966   -1.672659
H     -6.204509    2.656218   -1.550256
H     -4.582237    4.494296   -0.955974
H     -1.551648   -1.230114    0.392578
H      0.749345   -2.590292    0.211151
H      3.381226   -0.015549   -1.429658
