34

C      2.393623    0.433193   -2.257051
C      1.723533    1.506952   -1.452947
C      1.188907    0.979323   -0.339114
C      0.443575    1.639377    0.728161
C     -0.027107    0.862925    1.732672
C      0.208148   -0.596370    1.775716
C     -0.300891   -1.375355    2.851856
N     -1.021483   -0.945173    3.904108
S     -1.340576   -2.274961    4.843372
N     -0.589157   -3.465788    3.965175
C     -0.050100   -2.864932    2.893689
C      0.688301   -3.511885    1.874259
C      1.167721   -2.696955    0.831489
C      0.943051   -1.297760    0.773256
C      1.446493   -0.461438   -0.329960
C      2.144026   -0.793591   -1.428719
C      0.160769    3.036642    0.803177
S      1.444332    4.220953    0.988881
C      0.360099    5.573214    1.013650
C     -0.889243    5.093349    0.891371
O     -2.037498    5.822560    0.868847
C     -2.958210    4.799077    0.729710
C     -2.390361    3.519614    0.670420
C     -1.004132    3.730703    0.780471
H      3.464974    0.628004   -2.360915
H      1.937209    0.339261   -3.246730
H      1.689278    2.544443   -1.749090
H     -0.586969    1.291142    2.561090
H      0.870865   -4.579726    1.900639
H      1.736980   -3.182380    0.039512
H      2.481846   -1.778564   -1.709591
H      0.681918    6.599079    1.114572
H     -3.985121    5.138021    0.686398
H     -2.926572    2.587751    0.562392
