42

Si     1.599633    3.257334   -0.185695
C      0.539934    2.772031   -1.637994
C     -0.135672    1.627105   -1.401904
C     -0.904077    0.887618   -2.405361
C     -1.352210   -0.337807   -2.063516
C     -1.171515   -0.920095   -0.720216
N     -1.561206   -2.206925   -0.626755
C     -1.457668   -2.769488    0.589780
C     -1.118406   -2.087027    1.756961
C     -1.075495   -2.787128    2.967549
C     -0.823870   -2.125335    4.161312
C     -0.715951   -0.736908    4.185538
C     -0.592555   -0.086235    5.425595
C     -0.603721    1.301836    5.511965
C     -0.769645    2.050372    4.359421
C     -0.872223    1.406825    3.121808
C     -0.779829    0.000559    2.972762
C     -0.840124   -0.699418    1.695819
C     -0.686935   -0.162517    0.369599
C      0.030783    1.085011   -0.026078
C      0.981829    1.726931    0.686766
C     -1.166376    1.308661   -3.739229
C     -2.317874    1.614069   -4.438364
C     -1.939764    1.959362   -5.759097
C     -0.569990    1.845248   -5.836629
N     -0.110006    1.442425   -4.609344
H      3.047103    3.186745   -0.498323
H      1.136970    4.504321    0.469089
H      0.572543    3.337000   -2.556029
H     -1.894551   -0.963110   -2.767080
H     -1.702450   -3.829307    0.607211
H     -1.242758   -3.862506    2.994272
H     -0.786850   -2.702915    5.082701
H     -0.516348   -0.662238    6.345933
H     -0.522852    1.791369    6.478399
H     -0.834542    3.133904    4.414015
H     -1.070653    2.035532    2.257193
H      1.376984    1.463716    1.654854
H     -3.322684    1.594226   -4.036219
H     -2.597631    2.254482   -6.566155
H      0.115074    2.009188   -6.657341
H      0.857565    1.263187   -4.374697
