45

C      0.541125    1.622614    1.272334
C      0.221635    0.336316    2.014397
C      0.523782    0.526655    3.311707
C      1.032669    1.858662    3.524265
C      1.059419    2.531527    2.361757
C      1.501652    3.910313    2.117694
C      1.978161    4.735809    3.142732
C      2.388792    6.041049    2.868616
C      2.312803    6.494847    1.564667
N      1.862532    5.743009    0.541521
C      1.471400    4.478586    0.842675
C     -0.301594   -0.874298    1.491173
S     -0.697965   -1.075053   -0.194142
C     -1.241232   -2.724658   -0.008247
C     -1.717057   -3.479341   -1.120313
C     -0.918353   -4.473022   -1.582062
C     -1.275168   -5.322242   -2.717394
C     -2.434786   -5.174878   -3.383768
C     -3.357411   -4.144479   -2.955062
C     -4.552689   -3.892153   -3.519576
Si    -5.416578   -2.486005   -2.636670
C     -3.947391   -2.368802   -1.485173
C     -3.003286   -3.278792   -1.802884
C     -1.091717   -3.036440    1.300684
C     -1.303521   -4.118755    2.170963
C     -0.896521   -3.656145    3.426589
O     -0.438295   -2.352583    3.428736
C     -0.588440   -2.043518    2.107664
H     -0.362782    2.035434    0.810600
H      1.306112    1.446075    0.507950
H      0.420266   -0.180115    4.121771
H      1.334129    2.212551    4.498145
H      2.038896    4.382044    4.167687
H      2.759033    6.686044    3.657541
H      2.620544    7.502592    1.301559
H      1.119102    3.922198   -0.021502
H      0.047787   -4.676560   -1.125981
H     -0.561444   -6.084726   -3.014229
H     -2.689054   -5.807735   -4.226297
H     -5.003941   -4.396990   -4.358423
H     -6.647861   -2.931854   -1.940920
H     -5.564032   -1.286692   -3.495878
H     -3.919916   -1.642374   -0.688860
H     -1.695858   -5.100380    1.947179
H     -0.874629   -4.128983    4.399799
