42

C     -2.300696    2.526747   -6.212705
C     -2.490873    3.773000   -5.609475
C     -2.138226    3.767955   -4.239811
C     -2.162212    4.730905   -3.294321
S     -1.595572    4.041734   -1.828376
C     -1.341680    2.471828   -2.532290
C     -0.837709    1.366682   -1.759589
C     -0.562100    0.055581   -2.099529
C     -0.097488   -0.536990   -0.927208
C      0.324910   -1.867582   -0.715738
C      0.374963   -2.885454   -1.618770
N      0.854712   -3.952502   -0.899423
C      1.087607   -3.575562    0.415348
C      0.758319   -2.242273    0.569917
C      0.828819   -1.428032    1.723245
C      1.276210   -1.842605    3.020343
S      1.851572   -3.378126    3.607052
C      2.103083   -2.813090    5.197344
C      1.772002   -1.487244    5.336876
C      1.313744   -0.972657    4.105267
C      0.886134    0.381077    3.898553
C      0.874130    1.333177    4.879037
S      0.298317    2.806183    4.223080
C      0.092960    2.099362    2.659813
C      0.447048    0.765584    2.601327
C      0.381167   -0.058119    1.455766
C     -0.061243    0.330697    0.150265
N     -0.529429    1.502230   -0.411283
C     -1.690223    2.498586   -3.862532
S     -1.682396    1.249950   -5.179360
H     -2.495120    2.271970   -7.245707
H     -2.867710    4.630092   -6.154166
H     -2.465289    5.766384   -3.358842
H     -0.680014   -0.413052   -3.064732
H      0.128443   -2.966973   -2.667912
H      1.016489   -4.880113   -1.269388
H      1.468197   -4.325742    1.089932
H      2.483148   -3.483582    5.955821
H      1.864580   -0.953753    6.273406
H      1.157703    1.273023    5.919705
H     -0.284214    2.762786    1.904993
H     -0.648285    2.376987    0.068947
