36

C     -3.910354   -4.926514   -2.910383
C     -3.195415   -3.854891   -2.139088
C     -3.910919   -2.742192   -1.644192
C     -3.281477   -1.736704   -0.892315
C     -1.925579   -1.844990   -0.621201
C     -1.243605   -2.970974   -1.116241
C     -1.831733   -3.979294   -1.858797
C     -1.063648   -0.933824    0.135306
C     -1.391860    0.262281    0.753895
C     -0.389129    0.979151    1.429548
C      0.945857    0.514032    1.501408
C      1.954539    1.310287    2.212216
S      3.026932    0.563857    3.324757
C      2.182372    2.672518    2.146814
C      3.244652    3.093909    2.998794
C      3.796207    2.043670    3.700156
C      4.915522    2.069469    4.683096
C      1.280936   -0.691139    0.874457
C      0.270060   -1.371133    0.217588
S      0.449306   -2.895802   -0.641575
O      0.704822   -3.942756    0.323326
O      1.250142   -2.666369   -1.824303
H     -4.725896   -4.500347   -3.503978
H     -4.322884   -5.670283   -2.221858
H     -3.229595   -5.427843   -3.606406
H     -4.977834   -2.654688   -1.846829
H     -3.865639   -0.894799   -0.532992
H     -1.249217   -4.827518   -2.204930
H     -2.404155    0.654638    0.728887
H     -0.661450    1.913234    1.919952
H      1.619567    3.341264    1.506809
H      3.584894    4.118601    3.088964
H      5.299243    3.086976    4.812025
H      4.581088    1.711442    5.662365
H      5.744746    1.439635    4.344427
H      2.292185   -1.086089    0.885310
