43

Si     3.005020   -2.747460   -1.543258
C      1.679767   -2.381566   -2.793591
C      0.834297   -1.417350   -2.375865
C     -0.298004   -0.884620   -3.078119
C     -0.786114   -1.259954   -4.373257
S     -0.345793   -2.396352   -5.634410
C     -1.657394   -1.875862   -6.598986
C     -2.413770   -0.887931   -6.017641
C     -1.896846   -0.544106   -4.731626
S     -2.368187    0.591209   -3.505888
C     -1.068694    0.119675   -2.500901
C     -0.792015    0.696549   -1.169318
C     -1.486276    1.717026   -0.482917
C     -2.582610    2.456680   -0.865341
N     -2.881667    3.348096    0.143056
C     -1.995493    3.200694    1.179338
C     -1.125742    2.195386    0.829460
C     -0.054161    1.725639    1.590873
C      0.658530    0.710109    0.915775
C      0.326347    0.206313   -0.397096
C      1.154855   -0.874199   -1.022362
C      2.239543   -1.444671   -0.450899
C      0.272510    2.210158    2.915488
S      1.786732    2.984833    3.215437
C      1.437864    3.251976    4.883140
C      0.206000    2.753841    5.196344
S     -0.697552    2.721097    6.753275
C     -1.946157    1.887740    5.834893
C     -1.677395    1.671287    4.478273
C     -0.412406    2.182946    4.085414
H      4.358155   -2.365873   -2.013202
H      2.887540   -4.107397   -0.964984
H      1.666045   -2.926611   -3.720627
H     -1.812022   -2.332087   -7.567474
H     -3.283172   -0.434545   -6.475978
H     -3.197773    2.468764   -1.751142
H     -3.638255    4.019691    0.114908
H     -2.067841    3.829504    2.056784
H      1.510020    0.285657    1.444191
H      2.685606   -1.240482    0.507371
H      2.132114    3.746500    5.548123
H     -2.837767    1.594175    6.372075
H     -2.373016    1.165954    3.818781
