41

C      0.817577   -2.652882   -0.794653
C      1.268405   -1.330743   -0.202864
C      2.613294   -1.340686   -0.150759
C      3.129721   -2.583650   -0.667678
C      2.116484   -3.377203   -1.054037
C      2.187933   -4.724024   -1.634600
C      1.033997   -5.432579   -1.989695
C      1.128339   -6.711655   -2.540004
C      2.385073   -7.257930   -2.724376
N      3.526213   -6.620069   -2.400458
C      3.399128   -5.377828   -1.867471
C      0.457469   -0.242771    0.234521
S      1.098150    1.242387    0.904222
C     -0.451543    1.981474    1.159842
C     -0.630481    3.294264    1.720900
S     -2.203075    4.024272    1.972410
C     -1.569986    5.491089    2.633545
C     -0.228380    5.388257    2.644113
N      0.651168    6.331676    3.088762
C      1.867220    5.694951    2.862996
C      1.683325    4.413820    2.300686
C      0.280887    4.204952    2.152649
C     -1.379103    1.093769    0.736887
O     -2.736371    1.239129    0.743447
C     -3.115839    0.028195    0.203350
C     -2.047362   -0.814229   -0.117009
C     -0.891761   -0.094946    0.242426
H      0.194448   -3.200735   -0.079117
H      0.263471   -2.487451   -1.725257
H      3.264852   -0.560224    0.214759
H      4.187855   -2.792831   -0.713889
H      0.044549   -5.007886   -1.846904
H      0.239321   -7.266861   -2.817592
H      2.510537   -8.249700   -3.148864
H      4.351775   -4.914838   -1.627209
H     -2.202365    6.304380    2.959742
H      0.444651    7.244461    3.475542
H      2.784973    6.207149    3.122482
H      2.485129    3.736256    2.040206
H     -4.187265   -0.090794    0.107276
H     -2.129854   -1.800933   -0.547661
