36

C     -5.821990   -0.971235   -2.790032
O     -4.784554   -0.002182   -2.886910
C     -3.675037   -0.204525   -2.112766
C     -3.469118   -1.267149   -1.242540
C     -2.280410   -1.344242   -0.512009
C     -1.274903   -0.365230   -0.634213
C     -0.042228   -0.572717    0.213797
O     -0.003793   -1.564558    0.935717
N      0.942126    0.382864    0.099839
C      2.165123    0.405184    0.779901
C      3.017350    1.473506    0.512900
C      4.249680    1.543928    1.162890
C      4.612165    0.541349    2.058432
C      5.904551    0.588346    2.807245
C      3.693321   -0.476560    2.272099
N      2.495748   -0.560864    1.652101
C     -1.484474    0.714134   -1.518650
O     -0.493934    1.661200   -1.626796
C     -0.706855    2.747927   -2.523769
C     -2.685275    0.776432   -2.245367
H     -5.472279   -1.957232   -3.113386
H     -6.232840   -1.009267   -1.775733
H     -6.627888   -0.666143   -3.464460
H     -4.204091   -2.053042   -1.103380
H     -2.140431   -2.187054    0.165002
H      0.762691    1.144322   -0.540450
H      2.738474    2.251837   -0.188547
H      4.916212    2.379026    0.965028
H      6.678561    1.092788    2.219297
H      5.772517    1.126025    3.751189
H      6.268054   -0.421785    3.023509
H      3.893340   -1.284801    2.970639
H     -1.569776    3.348385   -2.218138
H     -0.808157    2.394406   -3.554968
H      0.177138    3.391436   -2.479341
H     -2.891221    1.587577   -2.937164
