40

Si     1.816848    1.083986   -0.760260
C      2.622677    0.722438    0.930575
C      1.721437    0.213920    1.798646
C      0.380298    0.069388    1.240677
C      0.137371    0.458672   -0.115383
C     -1.136533    0.372945   -0.799939
C     -1.304667    0.775960   -2.141632
C     -2.570765    0.657829   -2.721873
O     -2.879156    1.006550   -4.002951
C     -4.199590    0.741326   -4.179074
C     -4.747088    0.225660   -3.027222
C     -3.695512    0.167828   -2.074658
C     -3.574246   -0.244279   -0.740708
C     -2.301460   -0.138064   -0.119143
C     -2.032542   -0.517012    1.224551
C     -2.909869   -1.037423    2.146542
N     -2.204437   -1.250546    3.312821
C     -0.888340   -0.874199    3.150939
C     -0.758306   -0.416274    1.864116
C      3.995191    0.956512    1.242478
S      5.133299    1.628706    0.063053
C      6.483416    1.605777    1.132228
C      6.058975    1.111721    2.304433
O      6.824962    0.931426    3.414496
C      5.873577    0.413148    4.269037
C      4.600804    0.289065    3.699121
C      4.731233    0.761516    2.374390
H      2.344148    0.215537   -1.845214
H      1.774920    2.535415   -1.077990
H      1.914845   -0.076077    2.819040
H     -0.494044    1.172932   -2.740257
H     -4.593825    0.969499   -5.159479
H     -5.776463   -0.072114   -2.889652
H     -4.432901   -0.632262   -0.204673
H     -3.962313   -1.279372    2.097682
H     -2.597505   -1.629094    4.164918
H     -0.185660   -0.971932    3.966618
H      7.474814    1.939234    0.863320
H      6.251343    0.178301    5.255594
H      3.727506   -0.093971    4.204384
