46

C      1.107505   -2.851398   -3.871766
C      1.822813   -3.712630   -2.828853
C      1.633123   -3.230334   -1.580828
C      0.823948   -2.065130   -1.643130
C      0.497227   -1.803636   -2.998789
C     -0.254323   -0.664602   -3.160481
S     -0.554405    0.044747   -1.606285
C      0.329025   -1.164136   -0.743928
C      0.451402   -1.150352    0.684160
S      0.871164    0.275604    1.586333
C      0.833008   -0.529572    3.126003
C      1.112007    0.134728    4.365088
S      1.959348   -0.636329    5.688274
C      1.900010    0.762442    6.706021
C      1.263982    1.730682    6.024685
O      1.006254    2.989938    6.469820
C      0.348667    3.495739    5.363916
C      0.217038    2.584307    4.308557
C      0.837885    1.402753    4.760584
C      0.502146   -1.823553    2.902811
N      0.332084   -2.821292    3.823270
C     -0.014430   -3.896673    3.010521
C     -0.050226   -3.527591    1.650548
C      0.297414   -2.152610    1.578839
C     -0.764924   -0.071676   -4.368587
S     -1.156670   -1.019529   -5.784338
C     -1.678895    0.347031   -6.713070
C     -1.540398    1.443037   -5.942879
N     -1.834738    2.727688   -6.295701
C     -1.491191    3.412666   -5.133317
C     -1.011192    2.535372   -4.137407
C     -1.047877    1.218278   -4.675694
H      0.351422   -3.442584   -4.395365
H      1.824141   -2.425551   -4.579513
H      2.404740   -4.587710   -3.076851
H      2.042099   -3.651719   -0.673062
H      2.315708    0.802292    7.702177
H      0.029406    4.523799    5.476281
H     -0.266033    2.777227    3.361250
H      0.440429   -2.757569    4.829023
H     -0.219668   -4.855435    3.469628
H     -0.308815   -4.185291    0.830872
H     -2.039485    0.258495   -7.727958
H     -2.202492    3.065167   -7.176681
H     -1.613603    4.487813   -5.101704
H     -0.678943    2.836298   -3.152589
