44

Si     3.604728   -0.594006    4.043822
C      2.547607   -2.025309    4.568980
C      1.468557   -2.150333    3.772748
C      0.570332   -3.251288    3.766527
C      0.407650   -4.398877    4.565574
C     -0.634425   -5.100812    3.992373
O     -1.113905   -4.451884    2.891448
C     -0.364821   -3.328982    2.763695
C     -0.603786   -2.350457    1.733038
C     -1.551050   -2.432857    0.720484
C     -2.389847   -3.469309    0.400408
O     -3.157892   -3.127210   -0.676899
C     -2.809246   -1.856783   -1.038464
C     -1.822533   -1.389872   -0.206459
C     -1.211950   -0.116551   -0.199783
C     -1.550151    0.928620   -1.097838
C     -0.970700    2.193069   -0.973096
C     -0.074549    2.386118    0.082073
C      0.267632    1.342432    0.962987
C     -0.234426    0.026164    0.847106
C      0.135690   -1.105599    1.729767
C      1.312163   -1.093188    2.707490
C      2.393274   -0.282986    2.648317
C     -1.314598    3.284419   -1.893809
C     -1.751183    4.533238   -1.433272
C     -2.073169    5.544487   -2.337287
C     -1.949388    5.280124   -3.690090
N     -1.532842    4.096779   -4.184681
C     -1.226572    3.135078   -3.279287
H      4.935568   -1.015725    3.546548
H      3.608408    0.510680    5.032216
H      2.860594   -2.700522    5.349298
H      0.968245   -4.692620    5.440835
H     -1.129391   -6.031632    4.232143
H     -2.565076   -4.460271    0.795280
H     -3.356726   -1.453867   -1.878496
H     -2.291634    0.755131   -1.874568
H      0.379053    3.363731    0.240562
H      0.913094    1.616198    1.791445
H      2.638977    0.468038    1.918377
H     -1.856780    4.721765   -0.367410
H     -2.416558    6.513310   -1.992451
H     -2.189802    6.034903   -4.433319
H     -0.884479    2.201955   -3.721135
