34

C     -1.918594   -3.940581    1.779207
C     -3.426140   -3.809369    2.044339
C     -3.913855   -2.611151    1.646910
C     -2.821606   -1.895484    1.115879
S     -2.668657   -0.357265    0.440396
C     -1.001676   -0.620310    0.196562
C      0.042236    0.345058   -0.428451
O     -0.110537    1.602087   -0.921345
C      1.135052    2.020567   -1.360477
C      2.076353    1.015466   -1.140242
C      1.356299   -0.016542   -0.556168
C      1.699419   -1.305354   -0.090294
C      2.916385   -1.919995   -0.091611
O      2.766050   -3.173118    0.464133
C      1.439343   -3.325946    0.809522
C      0.772067   -2.183906    0.473728
C     -0.607714   -1.869792    0.635238
C     -1.647099   -2.616910    1.168180
C      1.328553    3.312211   -1.941145
C      2.461241    3.926045   -2.437879
C      2.086013    5.214200   -2.896307
C      0.735673    5.353373   -2.667944
N      0.286264    4.195331   -2.088924
H     -1.717141   -4.762764    1.087139
H     -1.371561   -4.082051    2.715299
H     -4.013803   -4.594742    2.497430
H     -4.932352   -2.259579    1.716103
H      3.127425    1.063403   -1.383268
H      3.917083   -1.665973   -0.410152
H      1.183100   -4.273583    1.260012
H      3.455134    3.499648   -2.470642
H      2.732092    5.958248   -3.344154
H      0.057104    6.172198   -2.865970
H     -0.666369    4.002577   -1.806254
