38

O      0.720370   -1.245267    5.011461
C     -0.236903   -1.191822    4.245783
C     -1.521655   -1.851395    4.589827
C     -1.653147   -2.556106    5.790946
C     -2.867732   -3.164992    6.103236
C     -3.944750   -3.063076    5.222033
C     -3.810540   -2.357490    4.022250
C     -2.591730   -1.761072    3.685194
N     -2.463219   -1.005336    2.508720
C     -1.247435   -0.429139    2.105991
C     -1.155607    0.276497    0.899748
C      0.040938    0.908041    0.507768
C      0.125959    1.638305   -0.767905
C      0.581076    2.960432   -0.817897
C      0.653822    3.643034   -2.035630
C      0.280069    3.036978   -3.225762
N      0.363230    3.727395   -4.380361
C     -0.016291    3.072983   -5.498718
C     -0.467706    1.769871   -5.471095
N     -0.559842    1.063222   -4.323867
C     -0.183106    1.699145   -3.196215
C     -0.249534    1.031540   -1.977884
C      1.148782    0.827895    1.369156
C      1.066454    0.146968    2.585807
C     -0.130959   -0.470429    2.952496
H     -0.814549   -2.626242    6.479973
H     -2.975877   -3.712273    7.036563
H     -4.894777   -3.529169    5.473133
H     -4.666793   -2.276985    3.358075
H     -3.156682   -1.162844    1.788395
H     -2.031825    0.349615    0.258582
H      0.873567    3.479529    0.093261
H      1.007156    4.671180   -2.055739
H      0.053845    3.631514   -6.424857
H     -0.769820    1.253349   -6.374735
H     -0.595609   -0.000465   -1.983751
H      2.093843    1.293890    1.094876
H      1.931932    0.099510    3.243044
