39

C     -3.720406    1.530644    1.487493
C     -3.239059    1.096052    2.839870
C     -2.051587    0.488777    2.709147
C     -1.292903   -0.206377    3.725446
C     -0.196593   -0.899775    3.360182
C      0.208876   -0.857797    1.982390
S      1.513939   -1.787072    1.414647
C      1.433945   -1.149449   -0.200123
C      0.422178   -0.177278   -0.200675
C     -0.387990   -0.119818    0.960923
C     -1.625466    0.522405    1.302547
C     -2.617955    1.061539    0.580486
C      0.345937    0.640682   -1.380879
C     -0.335207    1.801117   -1.610970
N     -0.023547    2.169582   -2.900318
C      0.889827    1.283511   -3.433428
C      1.168262    0.327118   -2.476890
C      2.116446   -0.704526   -2.600440
C      2.894222   -0.947033   -3.797854
C      3.865129   -1.953079   -3.903465
C      3.985403   -2.683076   -2.725149
C      4.884643   -3.718054   -2.639500
S      4.826189   -4.464904   -1.103238
C      3.590738   -3.397920   -0.559173
C      3.221024   -2.465528   -1.503769
C      2.232323   -1.453562   -1.362112
H     -3.839889    2.616726    1.436692
H     -4.666824    1.043011    1.235439
H     -3.807111    1.197856    3.751595
H     -1.641373   -0.200073    4.751567
H      0.379465   -1.462180    4.087530
H     -2.674831    1.120109   -0.493415
H     -0.968172    2.431352   -1.006175
H     -0.373180    2.995073   -3.369704
H      1.271415    1.450039   -4.431029
H      2.728857   -0.320494   -4.672704
H      4.436715   -2.120609   -4.806712
H      5.570561   -4.083786   -3.391237
H      3.231608   -3.561222    0.442001
