44

C      0.394756   -0.420967   -1.164586
C      1.459557   -0.572767   -0.083963
C      1.189466    0.150308    1.021374
C     -0.043286    0.851883    0.763640
C     -0.554359    0.554686   -0.512899
C     -1.753773    1.141962   -0.959909
N     -2.458944    1.030389   -2.134341
C     -3.599829    1.815045   -2.107172
C     -4.584424    1.988738   -3.088666
C     -5.646017    2.850814   -2.800942
C     -5.720049    3.513688   -1.578902
C     -4.729829    3.332204   -0.605855
C     -3.647792    2.469035   -0.868112
C     -2.499050    2.031962   -0.191705
C     -1.998210    2.350782    1.117432
C     -2.475369    3.166573    2.098534
N     -1.557714    3.064028    3.128505
C     -0.532459    2.197542    2.783065
C     -0.793431    1.736149    1.514934
C      2.600914   -1.451510   -0.279447
C      2.545897   -2.728734   -0.897430
C      3.685115   -3.591111   -1.095772
C      5.005483   -3.267735   -0.710782
C      5.038915   -2.009425   -0.127432
C      6.146051   -1.355546    0.341418
O      5.780721   -0.125045    0.813092
C      4.428087   -0.001769    0.640730
C      3.918640   -1.146915    0.081031
H     -0.117938   -1.365172   -1.370846
H      0.814315    0.003479   -2.081857
H      1.745841    0.207208    1.941649
H     -2.184563    0.455308   -2.916364
H     -4.531342    1.474740   -4.042884
H     -6.425454    3.005745   -3.543479
H     -6.554506    4.180186   -1.375368
H     -4.803909    3.857022    0.340198
H     -3.344731    3.800068    2.189192
H     -1.624684    3.553082    4.011360
H      0.273221    2.001459    3.476910
H      1.579798   -3.107417   -1.233323
H      3.511013   -4.556261   -1.573942
H      5.852693   -3.919366   -0.868222
H      7.199781   -1.585581    0.407137
H      4.010807    0.943151    0.958045
