35

C      0.839986   -0.377964    3.563544
C      0.800692    0.476781    2.291665
C      1.721036    1.695940    2.419467
C     -0.631733    0.902673    1.960910
C     -1.500124    1.684832    2.709906
C     -2.772405    1.939238    2.194138
C     -3.160540    1.416009    0.950210
C     -2.282668    0.628690    0.199058
C     -1.019456    0.375565    0.709199
C      0.077190   -0.392722    0.159482
C      0.172698   -1.092844   -1.034245
C      1.367002   -1.766338   -1.346038
C      1.456146   -2.499334   -2.609242
C      2.638785   -2.872290   -3.222458
S      2.314175   -3.708275   -4.686762
C      0.637775   -3.501808   -4.405633
N      0.309292   -2.858853   -3.308013
C      2.441410   -1.725365   -0.429112
C      2.346088   -1.019586    0.775994
C      1.162436   -0.356366    1.058999
H      0.513852    0.194748    4.439382
H      0.184844   -1.254077    3.482796
H      1.852780   -0.744516    3.766854
H      2.761639    1.394542    2.586112
H      1.423327    2.334328    3.259278
H      1.700572    2.315172    1.514237
H     -1.205407    2.090987    3.671831
H     -3.472257    2.548842    2.760953
H     -4.156396    1.625530    0.566851
H     -2.592527    0.228409   -0.760539
H     -0.666926   -1.119292   -1.723197
H      3.657814   -2.700791   -2.909828
H     -0.103878   -3.879490   -5.097154
H      3.367541   -2.256284   -0.633663
H      3.180886   -1.000639    1.469229
