41

C      0.988076    5.084642   -1.341713
C      0.544375    4.972715   -2.773176
C      0.355101    3.681496   -3.073394
C     -0.048432    3.074667   -4.315434
C     -0.142798    1.731317   -4.354134
C      0.142617    0.895094   -3.182969
C      0.507333    1.397958   -1.975136
C      0.762892    0.488572   -0.880687
C      1.813238   -0.343237   -0.734403
C      1.760912   -1.145973    0.493495
N      2.743159   -2.012341    0.761075
C      2.603151   -2.704588    1.914826
C      1.530461   -2.581262    2.823210
C      0.520586   -1.653974    2.492665
N     -0.550266   -1.448965    3.279676
C     -0.655650   -2.159252    4.424233
C      0.271524   -3.098863    4.856688
C      0.105869   -3.805288    6.056848
C      1.071237   -4.724347    6.420613
N      2.166250   -4.978913    5.682071
C      2.301220   -4.282053    4.526929
C      1.394867   -3.321938    4.043225
C      0.652495   -0.942657    1.319306
Si    -0.459155    0.343435    0.566816
C      0.639064    2.853227   -1.904111
C      1.015043    3.649913   -0.891284
H      1.981860    5.536691   -1.272401
H      0.274645    5.668310   -0.752604
H      0.414961    5.809214   -3.441830
H     -0.258134    3.691798   -5.180330
H     -0.438393    1.224081   -5.267327
H      0.035135   -0.176702   -3.331891
H      2.639523   -0.445831   -1.423566
H      3.422338   -3.395763    2.093505
H     -1.548246   -1.937054    5.004804
H     -0.755332   -3.646094    6.697618
H      0.986705   -5.295534    7.340858
H      3.206489   -4.538532    3.983600
H     -0.517641    1.604103    1.354345
H     -1.768029   -0.195930    0.111262
H      1.304316    3.334491    0.098872
