41

C     -1.664077    2.058065    3.651746
C     -1.502688    0.911006    2.658228
S     -0.126789   -0.197828    3.135305
C      1.275807    0.780052    2.918288
N      1.371615    1.915157    2.269881
N      2.698020    2.273322    2.333127
N      3.404481    1.372861    3.004986
N      2.513771    0.438092    3.379021
C      2.929256   -0.708914    4.135982
C     -1.466766    1.400293    1.199826
O     -2.036573    2.441184    0.876970
N     -0.850889    0.526088    0.323932
C     -0.721870    0.634541   -1.081142
C     -1.497178    1.520445   -1.837625
C     -1.367593    1.577377   -3.227984
C     -0.462877    0.748537   -3.880950
C      0.319930   -0.136763   -3.142132
C      0.207510   -0.207971   -1.740649
C      1.093598   -1.128359   -1.010981
C      2.294158   -0.664636   -0.449867
C      3.138428   -1.531339    0.247104
C      2.788610   -2.871857    0.397910
C      1.596928   -3.345918   -0.148897
C      0.755131   -2.480095   -0.851096
H     -2.589136    2.611224    3.451548
H     -1.723256    1.692616    4.682732
H     -0.843886    2.779926    3.583757
H     -2.404828    0.290128    2.727286
H      2.774778   -1.604914    3.529420
H      3.988841   -0.614935    4.390754
H      2.338701   -0.757643    5.053567
H     -0.293293   -0.199764    0.760058
H     -2.227143    2.175688   -1.372592
H     -1.979375    2.273301   -3.797181
H     -0.361038    0.796696   -4.962050
H      1.035753   -0.770160   -3.662430
H      2.577505    0.382723   -0.556594
H      4.071455   -1.155948    0.662210
H      3.449707   -3.550748    0.930625
H      1.325685   -4.392814   -0.039261
H     -0.169364   -2.863661   -1.278263
