33

C      0.531952   -5.040763    2.133287
C     -0.220153   -5.768318    1.234082
N     -0.810780   -5.237451    0.141360
C     -0.671261   -3.932853   -0.100330
N     -1.261941   -3.422281   -1.180693
C     -1.129861   -2.098942   -1.439295
C     -0.414350   -1.200613   -0.655870
C     -0.313291    0.222999   -0.992043
C     -1.441428    1.000926   -1.249198
N     -1.456142    2.314171   -1.567533
C     -0.233930    2.881182   -1.628620
S     -0.063481    4.527769   -2.015057
C      1.630167    4.437891   -1.892223
N      2.392450    5.530622   -2.110641
C      3.716150    5.315722   -1.982668
C      4.303628    4.106246   -1.657184
C      3.482075    3.002885   -1.438141
C      2.083398    3.164710   -1.558113
C      0.982218    2.247562   -1.399951
C      0.927123    0.872418   -1.070163
C      0.203178   -1.742716    0.472423
C      0.080329   -3.112397    0.762464
C      0.684810   -3.684499    1.891558
H      0.983864   -5.516807    2.996000
H     -0.377684   -6.835241    1.367506
H     -1.636242   -1.778541   -2.347869
H     -2.437791    0.563014   -1.192294
H      4.333899    6.193769   -2.159304
H      5.382186    4.022134   -1.575776
H      3.913820    2.039999   -1.182361
H      1.850259    0.326225   -0.894163
H      0.771835   -1.100132    1.141602
H      1.269524   -3.079874    2.579711
