49

C      3.606941   -1.057324   -6.825947
C      2.949167   -0.252214   -7.726830
S      1.753165    0.663376   -6.915156
C      2.197294   -0.078069   -5.417421
N      3.180979   -0.959594   -5.516528
C      1.510092    0.271311   -4.159092
C      1.878663   -0.325207   -2.965966
C      1.189885    0.041599   -1.787618
C      1.431915   -0.462021   -0.496275
C      2.307002   -1.477165   -0.184679
N      2.153118   -1.748047    1.152203
C      1.194899   -0.919500    1.686006
C      0.794167   -0.030229    0.710792
C     -0.206021    0.977829    0.845252
C     -0.630457    1.307454   -0.527422
C     -1.898834    1.947348   -0.421728
C     -2.783705    2.218905   -1.443983
N     -3.915998    2.781447   -0.899767
C     -3.806995    2.813091    0.466185
C     -2.582202    2.276180    0.793936
C     -2.087627    2.094532    2.103152
C     -2.804628    2.439848    3.268170
C     -2.214400    2.293273    4.511633
C     -0.878478    1.912294    4.609180
C     -0.270641    1.909060    5.876732
C      1.090848    1.664805    6.020028
C      1.861930    1.451807    4.890673
C      1.256972    1.431390    3.629273
C     -0.137606    1.585706    3.436452
C     -0.784040    1.524765    2.134728
C      0.115298    0.964967   -1.783792
C     -0.115623    1.512837   -3.055393
N      0.525668    1.197129   -4.216261
H      4.411091   -1.740175   -7.071536
H      3.108378   -0.160046   -8.791140
H      2.683584   -1.051619   -2.943768
H      2.985839   -2.067574   -0.784758
H      2.628817   -2.485201    1.656753
H      0.885634   -1.058549    2.713125
H     -2.764845    2.045004   -2.508675
H     -4.725962    3.082072   -1.427117
H     -4.619804    3.199542    1.064934
H     -3.819366    2.820794    3.210465
H     -2.787893    2.553629    5.398115
H     -0.853700    2.131526    6.768342
H      1.549973    1.682093    7.004238
H      2.936237    1.313845    4.977802
H      1.916809    1.326480    2.770859
H     -0.829971    2.316578   -3.195040
