42

C     -1.012226   -3.694260    5.565004
C     -0.960163   -2.943617    4.370571
C      0.344333   -3.102071    3.832816
C      1.117021   -2.722229    2.790045
S      2.686238   -3.445211    3.023816
C      2.232718   -4.234858    4.503406
C      0.947220   -3.921735    4.759767
N      0.202130   -4.325892    5.828472
C      0.860348   -1.891124    1.636225
C      1.549471   -0.703696    1.329424
C      1.252825    0.142991    0.181919
C      1.935931    1.395836    0.057502
N      2.858805    1.872514    0.915878
S      3.302061    3.370994    0.382769
N      2.359225    3.497304   -0.967152
C      1.652695    2.354338   -1.073686
C      0.742952    2.032980   -2.134112
C      0.538831    3.004531   -3.191414
C     -0.242394    2.777210   -4.333095
C     -0.714029    1.472621   -4.358027
C     -1.388525    0.991406   -5.454008
S     -1.698159   -0.685424   -5.300364
C     -0.914515   -0.753393   -3.772056
C     -0.535422    0.487273   -3.309169
C      0.130454    0.723262   -2.056064
C      0.278602   -0.133184   -0.857288
C     -0.453692   -1.284340   -0.426829
C     -1.655071   -1.753009   -0.903036
O     -2.039655   -2.871838   -0.223368
C     -1.122279   -3.085465    0.760555
C     -0.171640   -2.097022    0.726458
H     -1.831733   -3.824947    6.260339
H     -1.775620   -2.360669    3.962483
H      2.919265   -4.851037    5.066290
H      0.483272   -4.922641    6.596791
H      2.334900   -0.382274    2.017938
H      1.032586    3.975862   -3.111784
H     -0.369107    3.513774   -5.115311
H     -1.678787    1.513000   -6.356040
H     -0.772950   -1.726887   -3.328364
H     -2.355713   -1.436133   -1.661678
H     -1.319070   -3.934573    1.400603
