43

C      2.700231    1.365719    0.365732
C      1.856379    0.626532    1.433806
C      2.011773    1.334343    2.801582
C      2.401341   -0.812093    1.568688
C      3.743236   -1.058420    1.927413
C      4.231189   -2.359858    2.055579
C      3.386650   -3.440686    1.835529
C      2.057102   -3.217199    1.482469
C      1.563520   -1.913658    1.329344
N      0.211525   -1.717118    1.028023
C     -0.369514   -0.464221    0.803783
C     -1.727776   -0.383605    0.454218
C     -2.387293    0.845449    0.271544
C     -3.815287    0.883422   -0.101571
C     -4.667362    1.937898    0.196531
N     -5.974297    1.963125   -0.154862
C     -6.439669    0.898382   -0.815789
N     -7.730235    0.893281   -1.177635
C     -8.174192   -0.194202   -1.839183
C     -7.349820   -1.256923   -2.134530
N     -6.048814   -1.273775   -1.780603
C     -5.583536   -0.202189   -1.123228
N     -4.293219   -0.198231   -0.764470
C     -1.624353    2.007148    0.457414
C     -0.275621    1.939716    0.828220
C      0.371384    0.705090    1.016211
H      2.395358    2.411151    0.245831
H      3.766019    1.384997    0.618726
H      2.605123    0.882381   -0.614717
H      1.422964    0.827709    3.576529
H      1.678729    2.377690    2.767845
H      3.053015    1.353178    3.142176
H      4.426628   -0.234214    2.116656
H      5.268357   -2.526501    2.334303
H      3.757926   -4.455801    1.944718
H      1.402234   -4.070656    1.329180
H     -0.277056   -2.510209    0.633467
H     -2.289602   -1.308154    0.324277
H     -4.335404    2.810361    0.749225
H     -9.219871   -0.184761   -2.125893
H     -7.711164   -2.129934   -2.666542
H     -2.056086    2.994045    0.306546
H      0.264785    2.873492    0.967405
