41

C     -1.772351   -2.113253    4.269025
C     -2.105402   -3.581912    4.275535
C     -1.830153   -4.179530    3.105033
C     -1.283592   -3.178525    2.188108
C     -1.248510   -1.956641    2.874474
C     -0.765618   -0.845935    2.210259
O     -0.669862    0.398789    2.739312
C     -0.151524    1.199574    1.774606
C      0.101336    2.563311    1.931710
C      0.639013    3.262231    0.837709
C      0.896534    2.558985   -0.351616
C      0.632275    1.183159   -0.480602
C      0.091393    0.476406    0.611270
C     -0.311247   -0.878078    0.890948
C     -0.352183   -2.137969    0.196226
C      0.088420   -2.255622   -1.139702
C      0.045765   -3.480958   -1.807215
C     -0.435706   -4.611493   -1.158678
C     -0.877692   -4.523430    0.161900
C     -0.847334   -3.300571    0.862874
C      0.927853    4.700982    0.939469
C      1.691573    5.229959    1.988124
C      1.949104    6.598600    2.052213
C      1.432754    7.411415    1.058315
N      0.691546    6.953452    0.029089
C      0.457258    5.618240   -0.002391
H     -1.004711   -1.878528    5.011569
H     -2.666317   -1.504298    4.429451
H     -2.520809   -4.085910    5.136813
H     -1.981177   -5.219605    2.866537
H     -0.128543    3.054034    2.871377
H      1.327981    3.078677   -1.207275
H      0.855236    0.693974   -1.422110
H      0.470858   -1.400144   -1.682836
H      0.389761   -3.550352   -2.836189
H     -0.468748   -5.565289   -1.679150
H     -1.248584   -5.426602    0.640052
H      2.101379    4.577487    2.755816
H      2.541651    7.018030    2.857458
H      1.607016    8.483535    1.063844
H     -0.155765    5.295457   -0.840715
