48

C      0.722982    1.138277   -4.943854
N     -0.156077    1.295470   -3.789883
C     -1.353314    2.044746   -3.928690
C     -1.873511    2.425569   -5.180267
C     -3.060277    3.152806   -5.284666
C     -3.760239    3.501517   -4.139073
C     -3.275201    3.124014   -2.886045
C     -2.073140    2.403844   -2.750590
N     -1.561486    1.994696   -1.492244
C     -2.116755    2.575259   -0.273780
C     -0.537513    1.017094   -1.391020
C     -0.224189    0.366185   -0.180062
C      0.784970   -0.607174   -0.088718
C      1.088251   -1.267573    1.190370
C      0.092259   -1.931504    1.917347
C      0.384111   -2.556726    3.136644
C      1.681465   -2.549521    3.678288
C      1.964670   -3.220215    4.963044
C      3.206595   -3.763682    5.296133
N      3.469013   -4.377198    6.479668
C      2.427865   -4.437525    7.335491
C      1.186794   -3.914670    7.023410
N      0.929497   -3.304119    5.843112
C      2.673330   -1.873617    2.947031
C      2.382927   -1.247821    1.726052
C      1.482524   -0.938586   -1.252587
C      1.180788   -0.322622   -2.470835
C      0.182497    0.661370   -2.567400
H      0.439931    0.255080   -5.526429
H      0.706981    2.015442   -5.600581
H      1.776136    1.048263   -4.654581
H     -1.380456    2.142914   -6.104207
H     -3.441748    3.431677   -6.263182
H     -4.692443    4.054525   -4.216226
H     -3.874988    3.384769   -2.020550
H     -2.452368    3.608103   -0.420391
H     -2.960540    1.977806    0.087589
H     -1.370548    2.654039    0.525041
H     -0.779248    0.600093    0.723515
H     -0.926070   -1.977983    1.535692
H     -0.421622   -3.062475    3.667934
H      4.045080   -3.739186    4.608886
H      2.617510   -4.922806    8.285822
H      0.356999   -3.971359    7.718462
H      3.691346   -1.799113    3.323033
H      3.180396   -0.723986    1.201678
H      2.254923   -1.704558   -1.228849
H      1.729884   -0.655826   -3.345063
