37

O     -0.302025    1.221625    0.954073
C      0.639617    0.464683    1.150165
N      1.957235    0.831872    1.002912
C      2.299563    2.146458    0.506656
C      2.512323    2.135229   -0.979034
C      3.786137    1.991614   -1.537498
C      3.934909    1.972003   -2.921386
C      2.799688    2.091050   -3.705177
N      1.553750    2.221635   -3.204372
C      1.436189    2.236799   -1.856116
N      0.534093   -0.854324    1.532559
C     -0.737734   -1.457601    1.848961
C     -1.142879   -1.288963    3.307765
C     -0.800199   -2.240169    4.285810
C     -1.161711   -2.072393    5.625531
C     -1.870446   -0.940721    6.018526
C     -2.214108    0.021897    5.074145
C     -1.850981   -0.152335    3.736440
C     -1.825144   -1.527785    0.793028
C     -1.079100   -2.769416    1.157738
H      2.585225    0.081905    0.756354
H      3.222102    2.448353    1.015198
H      1.530222    2.877963    0.779390
H      4.663721    1.899797   -0.902961
H      4.912181    1.867499   -3.378882
H      2.863395    2.082908   -4.789407
H      0.416414    2.332205   -1.487508
H      1.314985   -1.188888    2.079013
H     -0.244752   -3.129756    3.997589
H     -0.889434   -2.825544    6.360105
H     -2.152699   -0.807140    7.059328
H     -2.761888    0.911435    5.373631
H     -2.115517    0.614113    3.008394
H     -2.858624   -1.441518    1.108452
H     -1.628058   -1.073659   -0.171609
H     -0.380315   -3.165351    0.430189
H     -1.621986   -3.530943    1.705445
