40

C      3.058663    6.362864    1.878238
C      2.639326    5.091727    1.467923
C      3.475399    4.539523    0.460261
C      3.483449    3.368459   -0.226185
S      4.848492    3.401854   -1.287998
C      5.347812    4.967823   -0.771394
C      4.496988    5.446883    0.182064
S      4.497142    7.000237    1.092162
C      2.575847    2.224817   -0.206979
C      3.044083    0.912778   -0.060742
N      2.266705   -0.201964   -0.017942
C      0.934432    0.003530   -0.129240
C      0.142586   -1.169297   -0.082740
N      0.489191   -2.497677    0.055779
C     -0.633238   -3.304437    0.048181
C     -0.767640   -4.688631    0.158545
C     -2.069642   -5.179569    0.110878
C     -3.127806   -4.292793   -0.038918
N     -3.022957   -2.951788   -0.147447
C     -1.752656   -2.477555   -0.100852
C     -1.238920   -1.183107   -0.177605
C     -1.878861    0.075080   -0.331954
C     -3.198156    0.384835   -0.452259
N     -3.227856    1.758150   -0.575842
C     -1.940685    2.276086   -0.529309
C     -1.067068    1.221533   -0.375023
C      0.344074    1.285651   -0.281221
C      1.193893    2.408989   -0.318712
H      2.591820    6.986809    2.628440
H      1.771291    4.603280    1.894326
H      6.221086    5.461067   -1.175523
H      4.108044    0.709754    0.042281
H      1.445097   -2.811920    0.148156
H      0.086749   -5.345317    0.274190
H     -2.259325   -6.245002    0.189641
H     -4.148272   -4.666701   -0.077312
H     -4.099880   -0.212889   -0.464322
H     -4.069413    2.308753   -0.686071
H     -1.787944    3.343095   -0.613851
H      0.773061    3.401802   -0.444362
