34

C     -1.330659    2.882367   -3.915967
C     -1.352496    2.314044   -2.527777
C     -0.572700    2.886495   -1.515649
C     -0.572170    2.341928   -0.228874
C     -2.119813    1.179407   -2.238277
C     -2.119550    0.634318   -0.951520
C     -1.330412    1.201551    0.057376
C     -1.332264    0.647316    1.408939
N     -1.856123    1.298150    2.437440
C     -1.842586    0.429772    3.488546
C     -1.270851   -0.764703    3.127362
N     -0.854826   -0.602946    1.808482
C     -0.097232   -1.601580    1.126571
C      0.117248   -2.810338    1.821518
C      0.840217   -3.842980    1.213195
C      1.363159   -3.671902   -0.067814
C      1.177310   -2.465767   -0.739773
C      0.455102   -1.426788   -0.145016
C     -0.395747   -2.982716    3.186222
C     -1.045700   -1.986483    3.802403
H     -2.288014    2.716727   -4.421177
H     -0.535414    2.409950   -4.500697
H     -1.158956    3.963660   -3.892967
H      0.031763    3.767855   -1.718264
H      0.019801    2.811751    0.553919
H     -2.731383    0.717684   -3.010327
H     -2.739402   -0.234259   -0.740422
H     -2.257409    0.705659    4.449218
H      1.009475   -4.783238    1.732251
H      1.927685   -4.474041   -0.536577
H      1.603814   -2.327054   -1.730876
H      0.376646   -0.500881   -0.700747
H     -0.221364   -3.926059    3.692964
H     -1.409789   -2.110740    4.818048
