47

C      2.171731    3.469775    0.459471
C      1.969039    3.155566   -0.990210
C      1.234195    2.038056   -1.126103
C      0.857554    1.314979   -2.354845
C      0.214047    0.129328   -2.201515
C     -0.116710   -0.331885   -0.889439
O     -0.762552   -1.513201   -0.627926
C     -0.968443   -1.601861    0.722266
C     -0.452473   -0.450444    1.303514
C     -0.653687   -0.330038    2.710926
C     -0.395344    0.665622    3.599366
O     -0.813453    0.250100    4.838223
C     -1.353752   -1.000346    4.693990
C     -1.295020   -1.399336    3.378366
C     -1.783437   -2.586398    2.831437
C     -2.441200   -3.651856    3.609966
C     -2.908512   -4.755948    2.994918
C     -2.763600   -4.893264    1.565298
C     -3.158611   -5.904750    0.780167
C     -2.789853   -5.601883   -0.644016
C     -2.124978   -4.259382   -0.531042
C     -2.118368   -3.863419    0.751849
C     -1.604965   -2.657628    1.415386
C      0.146272    0.333627    0.316763
C      0.889051    1.542893    0.224324
C      1.452367    2.343078    1.138274
C      1.132186    1.776608   -3.741562
N      1.205224    3.092764   -3.959551
C      1.433651    3.438319   -5.223618
N      1.591699    2.605509   -6.247639
C      1.496670    1.322340   -5.914273
N      1.266283    0.845131   -4.694164
H      3.235280    3.466530    0.715808
H      1.732036    4.436221    0.722298
H      2.396847    3.744787   -1.786872
H     -0.097032   -0.483286   -3.041367
H      0.012276    1.661564    3.575581
H     -1.735589   -1.436595    5.606166
H     -2.544847   -3.539640    4.682390
H     -3.394040   -5.548053    3.554199
H     -3.662602   -6.802864    1.101542
H     -2.098279   -6.351478   -1.039628
H     -3.679463   -5.548386   -1.278365
H     -1.721473   -3.717442   -1.372149
H      1.460452    2.216684    2.203978
H      1.497169    4.499666   -5.438638
H      1.616640    0.596394   -6.711368
