46

Si     4.785160   -1.688216   -0.119199
C      4.121805   -1.374971   -1.822663
C      2.826996   -0.986924   -1.804756
C      2.029396   -0.668456   -3.018718
C      2.580435   -0.908051   -4.341523
C      1.880930   -0.747335   -5.554121
C      0.573647   -0.381422   -5.299959
C     -0.389333   -0.249543   -6.266217
N     -1.563602    0.033451   -5.613176
C     -1.350239    0.072673   -4.249867
C     -0.006371   -0.123372   -4.014750
C      0.694825   -0.183867   -2.786800
C      0.166596    0.114515   -1.432195
C     -0.960225    0.919345   -1.243976
C     -1.549114    1.092251    0.006561
C     -1.023229    0.438508    1.135379
C     -1.523532    0.436150    2.482081
C     -0.762499   -0.313835    3.345393
S      0.558407   -1.003764    2.530015
C      0.167703   -0.291940    0.995960
C      0.833379   -0.378650   -0.269592
C      2.226670   -0.893363   -0.441141
C      3.115850   -1.190387    0.533207
C     -0.994698   -0.537414    4.744646
S      0.231585   -0.366417    5.953341
C     -0.837445   -0.761612    7.242771
C     -2.055475   -1.004677    6.711855
C     -3.297644   -1.374896    7.279547
C     -4.300067   -1.527833    6.315549
S     -3.828121   -1.240149    4.646650
C     -2.185867   -0.891465    5.326698
H      5.093979   -3.119034    0.118312
H      5.856564   -0.735062    0.258573
H      4.773388   -1.508456   -2.668635
H      3.605270   -1.262066   -4.434229
H      2.310274   -0.949615   -6.524210
H     -0.363139   -0.358159   -7.341915
H     -2.463283    0.150957   -6.060841
H     -2.200107    0.211063   -3.598614
H     -1.402591    1.461971   -2.073252
H     -2.437906    1.711952    0.098705
H     -2.415736    0.970711    2.785636
H      3.008439   -1.137933    1.599306
H     -0.502417   -0.789273    8.269954
H     -3.478886   -1.532026    8.335902
H     -5.329946   -1.807057    6.492635
