30

C      1.461424    1.583432   -4.866346
C      1.019264    0.527908   -5.867205
C      0.079185   -0.273526   -5.328738
C     -0.158085    0.171247   -3.997220
C      0.611620    1.222995   -3.707139
C      0.374160    1.669066   -2.374880
C     -0.569045    0.875445   -1.816664
C     -1.006906   -0.186950   -2.837621
C     -1.137716    0.933430   -0.491218
C     -2.082002    0.106756    0.012496
C     -2.482781    0.394422    1.398470
C     -3.423335   -0.299084    2.138290
N     -3.744019    0.022850    3.415029
C     -3.095272    1.079849    3.966383
C     -2.136411    1.841313    3.312133
C     -1.831892    1.484614    2.006276
Si    -0.621306    2.241739    0.805226
H      1.244398    2.588968   -5.237735
H      2.527055    1.485417   -4.640597
H      1.413892    0.444738   -6.868836
H     -0.412830   -1.104749   -5.808067
H      0.889226    2.507033   -1.933482
H     -2.070834   -0.092606   -3.077628
H     -0.786486   -1.197443   -2.478786
H     -2.538064   -0.716120   -0.522414
H     -3.960050   -1.148398    1.728134
H     -3.380278    1.305850    4.990683
H     -1.657189    2.673799    3.814135
H     -1.001146    3.619769    0.400085
H      0.791220    2.082478    1.237437
