31

Si    -0.952010    2.006157    2.303724
C     -0.065784    0.515198    3.075854
C      0.061630   -0.491062    2.181129
C     -0.499005   -0.215565    0.844858
C     -0.471296   -1.116522   -0.215908
C     -1.046998   -0.720738   -1.444483
S     -1.116539   -1.689367   -2.883575
C     -1.931087   -0.420617   -3.721614
C     -2.473581   -0.151491   -5.010887
C     -2.987991    1.124749   -4.937066
N     -2.782498    1.628084   -3.680211
C     -2.131315    0.672682   -2.935466
C     -1.633641    0.543042   -1.603777
C     -1.654808    1.449748   -0.516222
C     -1.084718    1.051607    0.692537
C      0.411578    0.444203    4.421480
C      1.067311   -0.605270    5.058153
C      1.406763   -0.340449    6.416692
C      1.005776    0.912762    6.805869
S      0.230662    1.753004    5.543626
H     -0.079320    3.201215    2.162155
H     -2.289611    2.268058    2.897044
H      0.529351   -1.447431    2.373392
H     -0.021465   -2.098794   -0.110542
H     -2.482399   -0.807577   -5.870367
H     -3.490007    1.723181   -5.686561
H     -3.046583    2.536999   -3.320214
H     -2.106432    2.431060   -0.628254
H      1.301566   -1.542833    4.569246
H      1.918352   -1.036054    7.070299
H      1.131072    1.377244    7.774249
