34

C      2.178902    3.679147   -0.772937
C      3.235942    4.370873    0.041490
C      3.502683    3.651769    1.140190
C      2.678962    2.470536    1.150278
C      1.887672    2.459851    0.063718
C      0.923008    1.449570   -0.335416
C      0.737431    1.009746   -1.668933
C     -0.218221    0.011143   -2.070134
C     -1.110395   -0.661696   -1.189071
C     -2.087064   -1.662893   -1.606353
C     -2.927529   -1.454145   -2.700538
C     -3.826005   -2.452380   -3.071828
C     -3.862449   -3.636141   -2.348090
C     -2.996137   -3.770771   -1.278057
N     -2.117601   -2.818488   -0.895684
C     -0.924875   -0.199128    0.122227
C     -1.632752   -0.571228    1.240520
N     -1.145852    0.155745    2.300640
C     -0.150131    1.007099    1.875894
C      0.030313    0.797638    0.528056
H      2.571217    3.419010   -1.760855
H      1.293605    4.314133   -0.878995
H      3.704197    5.304624   -0.229649
H      4.219775    3.897687    1.908409
H      2.730394    1.713564    1.918194
H      1.368924    1.428684   -2.452660
H     -0.238321   -0.253569   -3.128561
H     -2.895366   -0.521369   -3.254408
H     -4.490487   -2.303931   -3.917942
H     -4.547887   -4.433928   -2.609888
H     -2.982088   -4.676733   -0.679191
H     -2.433051   -1.285320    1.382677
H     -1.483566    0.087206    3.251493
H      0.321498    1.679214    2.578556
