49

Si    -0.901621   -2.293996    3.522076
C     -1.158060   -2.314876    1.681103
C     -0.497854   -1.308401    1.067884
C     -0.498013   -1.058079   -0.393202
C     -0.960069   -2.067796   -1.310584
C     -0.814509   -2.009974   -2.716820
C     -1.283620   -3.045299   -3.631739
N     -0.598741   -3.543876   -4.642951
C     -1.343969   -4.502456   -5.299786
C     -2.602580   -4.727795   -4.790513
S     -2.868113   -3.708804   -3.440836
C     -0.069125   -0.887815   -3.110420
C      0.321255   -0.639666   -4.408020
S      1.325181    0.741750   -4.524215
C      1.235826    1.024772   -2.836280
C      0.385024    0.149817   -2.193710
C      0.095281    0.177532   -0.803759
C      0.497874    1.242751    0.164988
C      0.510788    2.640528   -0.159561
C     -0.258756    3.192044   -1.217148
C     -0.208943    4.543005   -1.560966
C      0.604418    5.398992   -0.841978
C      1.337024    4.904674    0.235802
C      1.287146    3.539934    0.615699
C      1.975949    3.028986    1.734464
C      2.935686    3.794315    2.571069
C      3.460819    3.111692    3.600379
Si     2.814195    1.375964    3.707142
C      1.746195    1.694749    2.180210
C      0.896043    0.839667    1.470316
C      0.268508   -0.416698    1.981280
C      0.129106   -0.756103    3.281890
H     -2.153724   -2.027331    4.269405
H     -0.098435   -3.444722    3.999711
H     -1.784914   -3.073039    1.243113
H     -1.411211   -2.970353   -0.900888
H     -0.915475   -5.011171   -6.154919
H     -3.355627   -5.420356   -5.137162
H      0.114947   -1.209884   -5.303714
H      1.818806    1.838277   -2.428472
H     -0.937151    2.559616   -1.787874
H     -0.808883    4.917190   -2.386190
H      0.655579    6.453328   -1.099672
H      1.934901    5.617608    0.796848
H      3.204018    4.818218    2.353614
H      4.179249    3.489238    4.311702
H      3.881820    0.371745    3.473128
H      2.040906    1.186764    4.961321
H      0.449217   -0.231485    4.162051
