40

N     -1.692679    1.010228    0.312182
C     -0.604779    0.540554   -0.350244
C     -0.031215   -0.719180   -0.415621
C     -0.480817   -1.940645    0.236946
O     -1.500983   -1.998493    0.919689
N      0.340153   -3.020750    0.001862
C      0.003012   -4.355968    0.423280
C     -0.625190   -5.133081   -0.703675
C      0.159571   -5.930264   -1.548935
C     -0.426211   -6.631592   -2.604362
C     -1.798517   -6.537166   -2.829636
C     -2.586514   -5.738579   -2.003079
C     -2.003060   -5.037276   -0.947101
N      1.067871   -0.674900   -1.246122
N      1.203540    0.565063   -1.692264
N      0.224927    1.309330   -1.132945
C      0.156129    2.729388   -1.416532
C      1.039339    3.526911   -0.488565
C      0.577703    3.923030    0.776441
C      1.401629    4.650547    1.637781
C      2.697290    4.986676    1.247233
C      3.166985    4.588330   -0.002025
Cl     4.768173    4.997350   -0.481979
C      2.349541    3.860444   -0.867066
H     -2.239502    1.789635   -0.042498
H     -2.290767    0.310326    0.764694
H      1.084535   -2.892990   -0.674526
H      0.930058   -4.840556    0.748977
H     -0.668912   -4.329945    1.288734
H      1.232461   -6.010848   -1.390391
H      0.188548   -7.250705   -3.252461
H     -2.253366   -7.082477   -3.652251
H     -3.655552   -5.658570   -2.181591
H     -2.626793   -4.408957   -0.313078
H     -0.886426    3.055578   -1.336277
H      0.450003    2.876840   -2.462953
H     -0.425166    3.657142    1.107052
H      1.035402    4.948912    2.617224
H      3.335768    5.550530    1.921896
H      2.737631    3.543927   -1.833313
