22

C     -0.245297   -0.240566   -0.398537
C     -1.448223   -0.056665    0.430314
C     -2.192481   -1.159663    0.881317
C     -3.334818   -0.986043    1.667636
C     -3.752013    0.295529    2.017669
C     -3.028714    1.402747    1.581883
C     -1.887296    1.227236    0.794649
C     -0.110572    0.413618   -1.634587
C      1.030665    0.239185   -2.422323
C      2.058472   -0.592780   -1.985918
C      1.945800   -1.250377   -0.763677
C      0.803301   -1.075659    0.022165
H     -1.890238   -2.169073    0.609489
H     -3.898399   -1.852609    2.003127
H     -4.639886    0.431264    2.629428
H     -3.349262    2.404475    1.855570
H     -1.329993    2.105241    0.474231
H     -0.907107    1.059070   -1.999380
H      1.113417    0.751705   -3.377095
H      2.946334   -0.728524   -2.597690
H      2.747164   -1.898067   -0.418096
H      0.740294   -1.589701    0.979213
