50

C      4.487193    4.288222   -1.981166
C      3.635310    5.405354   -2.512882
C      2.345753    5.128207   -2.277616
C      1.180468    5.905024   -2.607602
C     -0.036294    5.434958   -2.274990
C     -0.212115    4.133463   -1.575068
C     -1.501572    3.698167   -1.255467
C     -1.685165    2.463962   -0.590739
C     -2.916168    1.892870   -0.203596
C     -4.174210    2.423494   -0.397657
N     -5.099630    1.538738    0.132451
C     -4.458164    0.441819    0.669150
C     -3.132528    0.675541    0.454663
C     -2.000255   -0.120540    0.796740
C     -2.043986   -1.359384    1.455126
C     -0.765051   -1.851510    1.627944
S      0.420456   -0.790398    0.974994
C     -0.753265    0.377912    0.445122
C     -0.568718    1.644706   -0.236082
C      0.724092    2.102224   -0.567378
C      0.907440    3.327373   -1.226922
C      2.236111    3.846378   -1.592812
C      3.467530    3.341988   -1.410978
C     -0.344951   -3.089695    2.261150
C      0.470128   -4.080152    1.654658
C      0.856552   -5.311022    2.294900
C      0.472037   -5.681735    3.603966
C     -0.321529   -4.697135    4.177743
C     -0.852014   -4.730756    5.441060
N     -1.550404   -3.554221    5.612018
C     -1.469681   -2.778817    4.473320
C     -0.715917   -3.472127    3.556132
H      5.059439    3.813142   -2.783368
H      5.168101    4.647696   -1.204095
H      4.019187    6.285611   -3.004344
H      1.299281    6.854094   -3.117392
H     -0.927021    6.005829   -2.515114
H     -2.363180    4.304928   -1.516151
H     -4.513517    3.340297   -0.859541
H     -6.101741    1.678595    0.124901
H     -5.009479   -0.364685    1.131572
H     -2.934313   -1.877878    1.786590
H      1.594232    1.504925   -0.311786
H      3.716779    2.407379   -0.933922
H      0.824402   -3.913880    0.636591
H      1.485899   -5.999374    1.729595
H      0.770833   -6.606764    4.075035
H     -0.798377   -5.462327    6.235561
H     -2.042204   -3.290648    6.455863
H     -1.948712   -1.809799    4.438397
