34

C      0.825910   -3.920550    1.626175
N      1.165743   -3.186006    0.428283
N      1.852722   -3.840066   -0.535434
C      1.933019   -2.969123   -1.551980
C      1.291622   -1.732601   -1.175246
C      1.181369   -0.587718   -1.966045
C      1.778225   -0.769484   -3.230481
C      2.419323   -1.978470   -3.640226
C      2.522289   -3.121691   -2.818366
C      0.835279   -1.886571    0.114589
C      0.147286   -0.969188    0.972997
C      0.276722   -0.768200    2.337179
C     -0.623508    0.262970    2.699177
C     -1.257197    0.659676    1.539098
C     -2.261184    1.673701    1.316288
O     -2.587492    1.737731   -0.006658
C     -3.578170    2.710192   -0.363982
C     -4.968377    2.123074   -0.208137
O     -2.752743    2.377558    2.190992
O     -0.784236   -0.085120    0.494405
H      1.541167   -3.650906    2.406478
H      0.885913   -4.993259    1.421408
H     -0.195456   -3.672732    1.924078
H      0.700857    0.334929   -1.670401
H      1.750097    0.060436   -3.937548
H      2.851976   -2.019315   -4.639881
H      3.009234   -4.034969   -3.129353
H      0.954574   -1.289425    2.998438
H     -0.789883    0.683200    3.682231
H     -3.463309    3.630790    0.219625
H     -3.405532    2.972151   -1.413029
H     -5.166521    1.852975    0.833905
H     -5.729746    2.837078   -0.534573
H     -5.066946    1.206457   -0.798946
