26

C     -0.094425    2.351711   -3.774569
C     -0.173659    2.805844   -2.469076
C      0.006159    1.918623   -1.393966
C     -0.109725    2.434057   -0.047531
C     -1.325922    2.596152    0.587732
S     -1.077059    3.270227    2.146358
C      0.611337    3.300850    1.840688
N      0.998753    2.836842    0.672883
C      0.290086    0.536786   -1.613281
C      0.351825    0.117665   -2.950953
C      0.162952    1.007491   -4.030683
S      0.672254   -1.564738   -3.088920
C      0.747813   -1.765607   -1.410245
N      0.993591   -2.987910   -0.890604
C      1.042797   -3.019836    0.453172
C      0.863796   -1.930365    1.281632
C      0.607876   -0.689989    0.701393
C      0.538693   -0.582667   -0.709289
H     -0.231944    3.043502   -4.602122
H     -0.370553    3.859316   -2.279574
H     -2.316708    2.361902    0.224655
H      1.312446    3.679397    2.573162
H      0.222791    0.648863   -5.055560
H      1.244759   -4.001705    0.874934
H      0.925528   -2.037482    2.359004
H      0.478034    0.176770    1.339946
