33

O      0.312210    0.287990    2.200285
C      0.099138    0.666569    1.061463
C      1.043838    0.556024   -0.098740
C      2.537859    0.637538    0.137590
C      3.241345    0.877533   -1.183012
C      2.605475    1.264049   -2.307744
C      1.123222    1.573352   -2.368736
C      0.585405    1.722972   -0.960532
C     -0.895882    1.693495   -0.722816
O     -1.751765    2.112669   -1.482756
N     -1.062635    1.198952    0.550449
C     -2.324239    1.193633    1.254822
C     -3.078401   -0.094309    1.023237
C     -3.939928   -0.226797   -0.075290
C     -4.616564   -1.425968   -0.302733
C     -4.433413   -2.505410    0.559545
C     -3.570025   -2.389249    1.647353
C     -2.892138   -1.191206    1.877057
H      0.808779   -0.402510   -0.588555
H      2.893731   -0.300313    0.578761
H      2.791508    1.439948    0.839715
H      4.315121    0.703163   -1.207077
H      3.171395    1.384627   -3.229247
H      0.604243    0.778126   -2.915971
H      0.964310    2.503666   -2.925597
H      0.939690    2.677351   -0.539184
H     -2.138746    1.327105    2.327218
H     -2.930380    2.043931    0.920352
H     -4.083357    0.603673   -0.765138
H     -5.283635   -1.518513   -1.155983
H     -4.959840   -3.439274    0.380693
H     -3.420802   -3.233433    2.315688
H     -2.211247   -1.119794    2.724020
