34

O     -3.474845    3.294605    3.261741
C     -3.036007    2.308117    2.681407
C     -3.668842    0.991768    2.855727
C     -3.237127   -0.123536    2.248883
C     -3.917785   -1.443493    2.459495
C     -2.069525   -0.026820    1.362561
C     -1.527547   -1.116058    0.673103
C     -0.410415   -0.950711   -0.156580
C      0.196386    0.301032   -0.317245
N      1.317007    0.395719   -1.173557
C      2.552195    0.776606   -0.454815
C      3.071357   -0.371111    0.401628
C      1.012127    1.233168   -2.351103
C      1.808030    0.752765   -3.557355
C     -0.344174    1.393780    0.364945
C     -1.458325    1.216175    1.188999
O     -1.938628    2.369014    1.841482
H     -4.524355    0.988761    3.521698
H     -4.303014   -1.838045    1.513241
H     -3.225836   -2.173347    2.893077
H     -4.768733   -1.357958    3.144595
H     -1.953789   -2.111413    0.760522
H     -0.002702   -1.809605   -0.685521
H      2.409521    1.676240    0.156220
H      3.335607    1.020824   -1.181438
H      4.037840   -0.105653    0.841704
H      3.205753   -1.277810   -0.197586
H      2.385593   -0.606096    1.221684
H     -0.051718    1.166073   -2.616347
H      1.233282    2.288520   -2.148248
H      1.601025   -0.302179   -3.766306
H      1.539439    1.336081   -4.443742
H      2.885719    0.857576   -3.400867
H      0.089884    2.383037    0.261033
