34

C      3.102730    4.580894    1.475934
C      2.237709    3.488409    1.697594
C      1.926575    2.912946    0.428829
C      1.215967    1.911298   -0.158832
S      1.515928    2.066644   -1.886834
C      2.554146    3.435188   -1.729199
C      2.644792    3.729992   -0.420274
N      3.372697    4.748104    0.123172
C      0.337256    0.843712    0.377784
C      0.111037    0.737396    1.758502
C     -0.712600   -0.255911    2.315938
C     -1.340623   -1.185368    1.472132
C     -1.119592   -1.084900    0.097786
C     -0.296824   -0.093436   -0.464628
N     -1.833718   -2.095660   -0.521659
C     -2.517316   -2.857507    0.402179
C     -3.359487   -3.972172    0.241831
C     -3.937487   -4.568285    1.377376
C     -3.631729   -4.000722    2.636780
N     -4.088915   -4.432392    3.828930
S     -3.429165   -3.418747    4.990204
N     -2.529664   -2.381917    4.027818
C     -2.761626   -2.848023    2.810383
C     -2.202488   -2.283907    1.619271
H      3.551132    5.259465    2.190389
H      1.895618    3.176670    2.674219
H      3.016322    3.920126   -2.577191
H      3.947749    5.429304   -0.357033
H      0.572689    1.430690    2.452736
H     -0.857342   -0.297778    3.392235
H     -0.166344   -0.070130   -1.541266
H     -1.848683   -2.250380   -1.519474
H     -3.567725   -4.376332   -0.745890
H     -4.592143   -5.428636    1.297847
