41

Si     0.050792    1.730507    6.133662
C      1.276749    0.346214    6.763613
C      1.669803   -0.475694    5.764358
C      1.069086   -0.082486    4.548254
N      1.214016   -0.659461    3.318165
C      0.443272    0.044466    2.389729
C     -0.163944    1.062411    3.133259
C      0.212850    0.990843    4.445866
C     -1.021332    1.946113    2.437111
C     -1.749256    3.013576    2.856061
O     -2.409715    3.515067    1.761331
C     -2.070145    2.734814    0.681598
C     -1.198275    1.739237    1.061311
C     -0.621097    0.740405    0.244976
C     -0.816316    0.557711   -1.144022
C     -0.174365   -0.486927   -1.827813
C      0.668990   -1.342168   -1.091886
C      0.875382   -1.176455    0.285417
C      0.237308   -0.134951    0.977159
C     -0.354310   -0.677331   -3.271752
C      0.737009   -0.788485   -4.171798
C      0.599809   -0.975066   -5.568239
C     -0.645383   -1.071527   -6.206325
C     -1.782782   -0.970792   -5.371596
N     -3.056938   -1.039206   -5.786991
S     -4.001298   -0.876748   -4.433092
N     -2.841437   -0.705092   -3.262404
C     -1.645823   -0.769615   -3.877125
H      0.670380    3.069273    6.301230
H     -1.276798    1.561663    6.776307
H      1.554227    0.314648    7.804532
H      2.345488   -1.313059    5.878535
H      1.782589   -1.465746    3.104828
H     -1.922174    3.529391    3.788101
H     -2.531222    3.025113   -0.251668
H     -1.470764    1.235786   -1.686559
H      1.171792   -2.168737   -1.591947
H      1.533300   -1.872358    0.796737
H      1.750681   -0.713303   -3.772811
H      1.503309   -1.043775   -6.174999
H     -0.738786   -1.214107   -7.276128
