45

C      5.381228   -2.951367   -0.361928
C      5.548811   -3.520046   -1.631785
C      4.332599   -3.290866   -2.293559
C      3.735493   -3.514368   -3.483521
S      2.136462   -2.823044   -3.409397
C      2.326444   -2.291215   -1.771859
C      1.319822   -1.563580   -1.039654
C      1.516605   -0.261539   -0.536302
C      0.537791    0.502005    0.185933
C      0.924731    1.739735    0.691221
C      0.054340    2.552082    1.433636
C     -1.304637    2.252040    1.642873
C     -2.185904    3.181169    2.404398
C     -1.742422    4.325500    3.093919
N     -2.507312    5.207056    3.798051
C     -3.830077    4.970876    3.846371
C     -4.428051    3.897128    3.225737
C     -3.595762    3.007969    2.512253
C     -4.019476    1.886918    1.782576
C     -5.313830    1.494761    1.553249
O     -5.324776    0.442955    0.687951
C     -4.025600    0.163625    0.377866
C     -3.172572    0.968570    1.095373
C     -1.750855    1.017038    1.039860
C     -0.802715    0.070876    0.438352
C     -0.931896   -1.313071    0.059894
C     -1.935582   -2.144383    0.505060
S     -1.807470   -3.735367   -0.121687
C     -0.305487   -3.385517   -0.864313
C      0.076257   -2.078308   -0.657241
C      3.569235   -2.621098   -1.368061
O      4.142567   -2.370065   -0.157988
H      6.041967   -2.881318    0.492524
H      6.436426   -4.019335   -1.992585
H      4.096065   -4.005706   -4.375883
H      2.496692    0.191041   -0.707531
H      1.945296    2.095353    0.547237
H      0.485910    3.478493    1.806335
H     -0.690483    4.594235    3.125516
H     -4.412410    5.691639    4.412631
H     -5.499849    3.756636    3.291284
H     -6.287781    1.851546    1.856466
H     -3.904775   -0.603953   -0.372726
H     -2.746955   -1.937614    1.186100
H      0.224485   -4.181479   -1.368463
