38

C     -2.009780    4.710483    0.109466
C     -2.979655    3.748394    0.307177
C     -2.285994    2.542929    0.276597
C     -2.757226    1.213372    0.422778
C     -4.019191    0.748364    0.632925
N     -3.878978   -0.623534    0.691403
C     -2.549471   -0.981748    0.519869
C     -1.817121    0.173319    0.346795
C     -0.420907    0.278017    0.137578
C      0.517622   -0.769408    0.063650
C      1.856795   -0.453537   -0.154667
N      2.288599    0.827827   -0.294475
C      1.372233    1.824905   -0.217617
C      0.008208    1.625949   -0.005003
C     -0.926348    2.715274    0.068007
N     -0.785497    4.086922   -0.032724
C      2.884593   -1.489705   -0.217294
C      3.039323   -2.511766    0.763147
C      4.035256   -3.541550    0.720135
C      4.987479   -3.668589   -0.310131
C      4.841268   -2.673087   -1.275046
C      5.656192   -2.602031   -2.377973
S      5.222331   -1.282943   -3.388573
C      3.941701   -0.808388   -2.344009
C      3.844057   -1.626641   -1.241010
H     -2.079289    5.788830    0.056517
H     -4.037321    3.919637    0.451306
H     -4.981835    1.226796    0.744395
H     -4.637622   -1.276710    0.837649
H     -2.269122   -2.025719    0.538299
H      0.201799   -1.801328    0.164792
H      1.793154    2.818088   -0.336973
H      0.088798    4.568921   -0.188195
H      2.366632   -2.510323    1.622952
H      4.057364   -4.264474    1.536348
H      5.732837   -4.452402   -0.327050
H      6.479389   -3.245111   -2.656526
H      3.341006    0.052470   -2.603896
