30

C      5.866069    0.569499   -2.029535
C      5.573132    1.862476   -2.410956
N      4.413443    2.490093   -2.118854
C      3.482438    1.837758   -1.420421
N      2.343519    2.468350   -1.139256
C      1.388117    1.814724   -0.428869
C      1.492115    0.512439    0.044903
C      0.376862   -0.075008    0.803721
N     -0.742069    0.570658    1.069465
C     -1.609070   -0.225163    1.795444
C     -2.883872    0.137955    2.247690
C     -3.657679   -0.767187    2.973826
S     -5.234615   -0.582189    3.639237
C     -5.154888   -2.182066    4.243794
N     -4.050328   -2.847377    3.992669
C     -3.185457   -2.047303    3.265983
C     -1.910131   -2.408048    2.812540
C     -1.137803   -1.501768    2.086640
S      0.434137   -1.682286    1.421778
C      2.687954   -0.141419   -0.253622
C      3.693640    0.514199   -0.988395
C      4.905897   -0.117738   -1.303417
H      6.813635    0.112208   -2.290484
H      6.283585    2.454397   -2.981692
H      0.493060    2.408037   -0.247120
H     -3.259627    1.132743    2.024802
H     -5.974400   -2.615741    4.802187
H     -1.534840   -3.402868    3.035661
H      2.863053   -1.162629    0.074028
H      5.103513   -1.138435   -0.986543
