29

C      0.381935    0.365632   -3.911575
C      1.321244    0.671513   -2.807276
N      2.497699    1.257455   -3.061816
O      3.138512    1.357215   -1.842517
C      2.345760    0.840200   -0.866520
C      2.928985    0.816124    0.488365
C      1.149464    0.430996   -1.418585
C      0.027152   -0.196850   -0.754724
O     -0.486612   -1.207083   -1.229028
N     -0.426002    0.376842    0.438253
C     -0.469412    1.835113    0.619312
C     -0.627882    2.207127    2.095904
O     -1.770005    1.557462    2.671007
C     -1.635025    0.131133    2.584277
C     -1.510914   -0.324560    1.128626
H      0.684968    0.853132   -4.844053
H     -0.627339    0.711664   -3.666413
H      0.343897   -0.713696   -4.089622
H      2.440018    0.066642    1.117805
H      3.995285    0.572093    0.447628
H      2.819816    1.793285    0.968176
H      0.410991    2.325851    0.201780
H     -1.338332    2.189672    0.050648
H      0.265496    1.932122    2.669085
H     -0.771948    3.287323    2.196293
H     -0.760410   -0.178192    3.168877
H     -2.520953   -0.318104    3.043608
H     -2.435630   -0.100835    0.582519
H     -1.343757   -1.406359    1.087362
