42

Si     2.719389    6.140405    1.540622
C      3.410239    5.275994    3.041634
C      3.148230    3.955562    3.001477
C      3.477460    3.040312    4.086245
C      3.102876    1.749645    4.017312
C      2.430322    1.304089    2.838965
O      1.991206    0.019192    2.641730
C      1.466008   -0.060140    1.380558
C      1.589974    1.185547    0.785775
C      1.178946    1.244067   -0.576925
C      1.253899    2.215068   -1.525491
O      0.718728    1.719363   -2.687774
C      0.343726    0.423795   -2.449354
C      0.633172    0.073795   -1.150681
C      0.441755   -1.196315   -0.560289
C     -0.111138   -2.359474   -1.149570
C     -0.204123   -3.554335   -0.418325
C      0.267392   -3.569254    0.907559
C      0.818782   -2.428402    1.505134
C      0.909008   -1.230803    0.780822
C     -0.777132   -4.753599   -1.029009
C     -1.311841   -5.049669   -2.269630
C     -1.700399   -6.411740   -2.236354
C     -1.381306   -6.867089   -0.980686
O     -0.823447   -5.873858   -0.243951
C      2.121202    2.086610    1.711783
C      2.419592    3.487842    1.779730
C      2.066691    4.486312    0.949787
H      1.629034    7.085214    1.880125
H      3.779286    6.673241    0.651930
H      3.900799    5.823011    3.831108
H      3.997940    3.420727    4.958568
H      3.311058    1.043855    4.812211
H      1.635666    3.219053   -1.600562
H     -0.081966   -0.090385   -3.299279
H     -0.461674   -2.319282   -2.176387
H      0.209335   -4.482950    1.497217
H      1.171187   -2.482756    2.532957
H     -1.412218   -4.368783   -3.102430
H     -2.155925   -6.988717   -3.028537
H     -1.480971   -7.820021   -0.480101
H      1.460969    4.445394    0.066361
