27

F     -0.433432    1.788515    3.373914
C      0.211306    1.208139    2.354074
C      0.008811    1.671910    1.060434
C      0.677241    1.062275   -0.002201
C      1.546576   -0.016687    0.228282
C      2.248420   -0.693970   -0.925733
S      1.406348   -2.227193   -1.432782
C      0.022984   -1.508538   -2.250061
N      0.185653   -0.869769   -3.425200
C     -0.907371   -0.330209   -4.003762
N     -2.166420   -0.322756   -3.547299
C     -2.297446   -0.962335   -2.371895
N     -3.460454   -1.104883   -1.663874
C     -3.123660   -1.778977   -0.586069
N     -1.790027   -2.078742   -0.572458
C     -1.242211   -1.560600   -1.712085
C      1.733566   -0.471731    1.544416
C      1.066827    0.142856    2.605273
H     -0.666206    2.503816    0.883329
H      0.507673    1.430447   -1.012983
H      2.348423   -0.014266   -1.779569
H      3.269896   -0.952534   -0.621239
H     -0.746756    0.154970   -4.961310
H     -3.794145   -2.077430    0.209257
H     -1.292452   -2.579782    0.151939
H      2.398251   -1.309273    1.750792
H      1.209299   -0.201492    3.625032
