41

C      5.992815    3.532477   -2.261048
C      5.072903    4.039840   -1.354241
C      4.061694    3.216200   -0.848110
C      3.935572    1.856274   -1.231531
C      4.884639    1.369882   -2.153905
C      5.900232    2.202486   -2.660329
C      4.781738    0.041058   -2.544627
N      3.839495   -0.818809   -2.105825
C      2.931882   -0.368834   -1.229119
C      1.963887   -1.263507   -0.782349
C      0.947518   -0.932300    0.138068
C     -0.053145   -1.949926    0.566982
C     -1.082908   -1.685777    1.474150
C     -1.942794   -2.746169    1.776671
N     -3.030851   -2.804068    2.615505
C     -3.586115   -4.061664    2.607386
C     -4.685485   -4.571987    3.294447
C     -4.965472   -5.906311    3.041643
N     -4.262794   -6.700428    2.204583
C     -3.196625   -6.180139    1.547279
C     -2.829076   -4.841145    1.732577
C     -1.792104   -4.007757    1.209548
C     -0.741379   -4.199882    0.311408
N      0.100817   -3.179964    0.008466
C      0.950768    0.387128    0.604161
C      1.912336    1.310173    0.172531
C      2.922779    0.957850   -0.750698
H      6.779972    4.168730   -2.656779
H      5.137078    5.077516   -1.036359
H      3.367323    3.661890   -0.141352
H      6.626843    1.815164   -3.371811
H      5.482493   -0.394370   -3.252775
H      2.011142   -2.277960   -1.179999
H     -1.227864   -0.717938    1.932412
H     -3.376120   -2.029114    3.163468
H     -5.282382   -3.980507    3.975988
H     -5.804864   -6.393995    3.531412
H     -2.664277   -6.855253    0.887014
H     -0.543319   -5.145167   -0.180790
H      0.209995    0.740681    1.314836
H      1.853656    2.316921    0.576474
