30

C     -3.886316    1.626537    2.879123
O     -3.166022    1.246305    1.707499
C     -3.439413    2.015302    0.613023
O     -4.224531    2.956270    0.604291
C     -2.672400    1.561978   -0.524775
C     -2.625100    2.035086   -1.820425
C     -1.704707    1.218412   -2.516145
C     -1.218923    0.271749   -1.622504
S     -0.033737   -1.055526   -1.853145
O     -0.830418   -2.249252   -2.040705
O      0.861946   -0.574934   -2.884387
N      0.854918   -1.223407   -0.420593
C      0.103741   -1.628686    0.798233
C      0.869319   -2.816253    1.367976
C      2.286706   -2.578299    0.888594
C      2.064448   -2.075048   -0.528636
O     -1.823875    0.496420   -0.402109
H     -3.596690    0.951147    3.688922
H     -4.964190    1.528485    2.716146
H     -3.629063    2.648964    3.173130
H     -3.191850    2.872225   -2.206828
H     -1.408018    1.292414   -3.554338
H     -0.936986   -1.899328    0.601116
H      0.114228   -0.786817    1.499125
H      0.481669   -3.750417    0.943741
H      0.792274   -2.879185    2.456970
H      2.768319   -1.804713    1.498576
H      2.904222   -3.479986    0.921521
H      2.918618   -1.493874   -0.886280
H      1.888783   -2.919365   -1.204865
