42

Si    -3.150845   -0.083940   -3.252194
C     -3.418886   -1.757388   -4.028736
C     -2.604153   -2.675651   -3.477002
C     -2.567172   -4.068948   -3.859101
C     -1.705491   -4.883575   -3.228424
C     -0.811852   -4.404860   -2.175631
C     -0.766032   -3.117646   -1.741328
C      0.169008   -2.782325   -0.689609
C      1.086733   -3.570501    0.005291
C      1.765436   -2.754320    0.941638
C      1.252631   -1.485014    0.803569
O      0.298703   -1.506442   -0.172553
C      1.590112   -0.289990    1.507339
C      2.502446   -0.049254    2.507485
C      2.414686    1.327616    2.833746
C      1.449083    1.920353    2.030954
N      0.965662    0.900305    1.231762
C      0.961880    3.301502    1.952361
C     -0.037852    3.743309    1.069237
N     -0.557093    5.008452    0.923031
C     -0.102483    6.033975    1.694649
C      0.906147    5.758566    2.637022
N      1.467250    6.645301    3.475011
S      2.587785    5.805303    4.360817
N      2.410445    4.288734    3.722947
C      1.457062    4.354579    2.773532
C     -1.698496   -2.176501   -2.405891
C     -1.846272   -0.857275   -2.158829
H     -4.327980    0.382669   -2.480869
H     -2.578776    0.900946   -4.201436
H     -4.143922   -1.910293   -4.811914
H     -3.226052   -4.433427   -4.638805
H     -1.651366   -5.935976   -3.490428
H     -0.174097   -5.178301   -1.760126
H      1.256832   -4.627455   -0.140968
H      2.537158   -3.058763    1.634171
H      3.164193   -0.775255    2.961141
H      3.009355    1.826275    3.588758
H      0.247573    0.982617    0.526599
H     -0.506149    3.040967    0.381221
H     -0.538589    7.012866    1.546602
H     -1.317927   -0.255742   -1.440541
