27

C      1.075598    0.479031   -3.491625
O      0.430068    0.633351   -2.236084
C      0.981851   -0.000020   -1.164242
C      2.136017   -0.796432   -1.182492
C      2.634618   -1.416321   -0.010495
C      2.000912   -1.265658    1.225501
C      0.866433   -0.485907    1.256570
C      0.353605    0.150087    0.057918
C     -0.841185    0.889621    0.440014
N     -1.807162    1.662521    0.000538
C     -2.582625    1.931596    1.150671
C     -2.064090    1.309216    2.274123
N     -0.986076    0.680736    1.763400
C     -0.040350   -0.115327    2.362187
C     -0.186657   -0.322087    3.680867
C     -1.346789    0.329019    4.338298
C     -2.242927    1.106863    3.670352
H      0.506226    1.047383   -4.233378
H      1.079909   -0.569540   -3.807094
H      2.091035    0.888044   -3.466382
H      2.687127   -0.963314   -2.103956
H      3.534940   -2.025074   -0.078191
H      2.390181   -1.744080    2.116849
H     -3.461961    2.558443    1.078746
H      0.490965   -0.929301    4.267649
H     -1.460459    0.158312    5.405612
H     -3.081103    1.568786    4.181632
