42

C     -3.084344    1.305121    4.380765
C     -3.265118    0.126236    3.429495
N     -2.112311   -0.056200    2.532914
C     -2.053006   -1.434928    2.009183
C     -3.249091   -1.914624    1.190333
C     -2.083920    0.961916    1.459178
C     -0.797994    0.990360    0.664231
C      0.435068    1.269920    1.148119
C      0.683913    1.612970    2.597789
N      1.566333    1.269570    0.352877
C      1.534120    0.901596   -0.993853
C      2.698872    0.866779   -1.760823
C      2.637629    0.531908   -3.117307
C      1.415729    0.239521   -3.730361
O      1.503214   -0.070141   -5.059330
C      0.284599   -0.369955   -5.730216
C      0.246464    0.286859   -2.974734
C      0.312744    0.621122   -1.614267
C     -0.922955    0.682881   -0.798843
O     -2.012535    0.479996   -1.327614
H     -2.146866    1.219429    4.940352
H     -3.088067    2.264643    3.856238
H     -3.904657    1.325928    5.106088
H     -4.198789    0.244543    2.866211
H     -3.383461   -0.764444    4.059945
H     -1.141627   -1.567397    1.413971
H     -1.924077   -2.117574    2.859391
H     -4.174484   -1.895409    1.773703
H     -3.395462   -1.315706    0.287860
H     -3.085133   -2.949941    0.872641
H     -2.189096    1.964383    1.892074
H     -2.963592    0.855872    0.814677
H     -0.223747    1.868127    3.148983
H      1.345524    2.483788    2.671002
H      1.169245    0.771945    3.103890
H      2.467318    1.340203    0.811571
H      3.662370    1.099361   -1.316292
H      3.552529    0.502852   -3.705217
H      0.524583   -0.593531   -6.774170
H     -0.194187   -1.256464   -5.301330
H     -0.392843    0.490315   -5.721092
H     -0.724883    0.073612   -3.409026
