42

C      3.558151   -1.388363   -0.655273
N      2.881482   -0.411634    0.170340
N      3.596373    0.212994    1.132110
C      2.729744    1.053616    1.712928
C      1.434944    0.917422    1.094064
C      0.290773    1.656229    1.421099
C      0.493384    2.575216    2.482309
N     -0.547613    3.411545    2.955784
C     -1.700875    3.622218    2.082120
C     -0.892751    3.156359    4.358972
C      1.787846    2.708419    3.103734
C      2.940142    1.966927    2.753978
C      1.551000   -0.052418    0.121341
C      0.607626   -0.633340   -0.787859
C     -0.749948   -0.853000   -0.628762
C     -1.223829   -1.460782   -1.816911
C     -0.132524   -1.602091   -2.650946
O      0.974679   -1.105161   -2.021043
C      0.024582   -2.153219   -3.975999
O     -1.189092   -2.569907   -4.445649
C     -1.145376   -3.135444   -5.760776
C     -2.553410   -3.546059   -6.145468
O      1.075384   -2.246854   -4.598928
H      3.637473   -0.986506   -1.668105
H      2.987359   -2.319960   -0.641269
H      4.558446   -1.573130   -0.253663
H     -0.654308    1.539707    0.916296
H     -2.333256    2.729175    2.024936
H     -1.387645    3.914540    1.073517
H     -2.315834    4.442116    2.469989
H     -0.040606    3.303608    5.030158
H     -1.671554    3.853303    4.688983
H     -1.275294    2.137386    4.489582
H      1.907197    3.461283    3.883494
H      3.899486    2.102091    3.232180
H     -1.333165   -0.617780    0.250422
H     -2.236091   -1.770807   -2.038429
H     -0.770432   -2.390881   -6.471944
H     -0.490435   -4.013932   -5.764512
H     -2.571953   -3.985585   -7.146634
H     -3.225825   -2.682004   -6.125839
H     -2.950945   -4.275046   -5.431562
