39

C     -0.984282   -0.153633   -5.717981
C     -1.011856   -0.303051   -4.324941
C     -0.198286    0.731950   -3.833375
C      0.262783    1.241575   -2.668231
S      1.273070    2.609408   -3.057273
C      1.038052    2.437823   -4.769392
C      0.225680    1.383389   -4.964303
O     -0.210564    0.905399   -6.160760
C      0.045279    0.841201   -1.277476
C     -0.825851    1.630133   -0.518287
C     -1.109118    1.252656    0.795293
N     -1.920656    1.906434    1.695602
C     -2.031088    1.202803    2.866542
C     -2.780060    1.504482    4.018281
C     -2.790617    0.609435    5.092341
C     -2.054134   -0.580563    4.930597
N     -1.987585   -1.572521    5.840281
S     -1.047029   -2.776336    5.167068
N     -0.673158   -2.082056    3.696749
C     -1.267028   -0.902199    3.741198
C     -1.243373    0.076566    2.677776
C     -0.578862    0.107432    1.409487
C      0.392029   -0.649072    0.649859
C      1.114368   -1.730148    1.205566
C      2.030287   -2.478320    0.463320
C      2.269243   -2.156950   -0.859716
C      1.607877   -1.072027   -1.430743
C      0.674836   -0.288140   -0.705863
H     -1.455564   -0.713614   -6.515295
H     -1.548498   -1.061804   -3.773258
H      1.487639    3.089025   -5.504270
H     -1.288164    2.514280   -0.950678
H     -2.400122    2.773833    1.500762
H     -3.360116    2.422795    4.078774
H     -3.359067    0.801842    5.994645
H      1.013950   -1.996355    2.247085
H      2.559813   -3.303515    0.932054
H      2.982941   -2.730910   -1.444034
H      1.851355   -0.834001   -2.464263
