34

C     -1.403040   -1.293605    4.718518
N     -0.179792   -0.979924    3.981246
C     -0.272076   -0.635340    2.626639
C      0.794714   -0.041286    1.933262
C      0.714776    0.291394    0.573147
C     -0.444797    0.029926   -0.161703
C     -0.542159    0.357055   -1.527539
C     -1.709729    0.080491   -2.248301
C     -1.863052    0.409098   -3.698581
C     -0.656674    0.825091   -4.514784
C     -0.511597    2.334220   -4.541084
O     -2.977277    0.345545   -4.218030
C     -2.789271   -0.519813   -1.591481
C     -2.700087   -0.848297   -0.236553
C     -1.531738   -0.578743    0.492438
C     -1.423894   -0.902990    1.862013
C      0.914573   -0.432491    4.781437
H     -2.100677   -0.448953    4.702006
H     -1.187786   -1.522791    5.768338
H     -1.892712   -2.185176    4.312500
H      1.731930    0.181445    2.433998
H      1.578274    0.753717    0.100266
H      0.305965    0.838112   -2.005177
H     -0.801400    0.446570   -5.533948
H      0.252844    0.340827   -4.148112
H     -0.354537    2.738344   -3.536149
H      0.340305    2.624421   -5.163524
H     -1.410810    2.806873   -4.950197
H     -3.709220   -0.738245   -2.131422
H     -3.555323   -1.316779    0.246194
H     -2.280405   -1.383855    2.325640
H      0.878130    0.662315    4.801831
H      0.863849   -0.784203    5.818120
H      1.887406   -0.762568    4.401610
