23

F     -1.253134   -2.124286    3.166365
C     -1.233461   -1.180091    2.214028
C     -0.083477   -0.412731    2.034136
F      0.998002   -0.607195    2.798957
C     -0.090238    0.549185    1.049838
C     -1.264674    0.750123    0.229693
C     -0.969241    1.817910   -0.704206
N     -1.451157    2.535422   -1.688251
C     -0.390848    3.410187   -2.024653
C      0.720684    3.197055   -1.225017
N      0.294402    2.197407   -0.429140
C      0.922226    1.521136    0.589276
C      2.180877    1.899235    0.863193
C      2.745438    2.997411    0.039345
C      2.052404    3.617472   -0.955938
C     -2.394699   -0.011687    0.414364
F     -3.487664    0.164062   -0.337423
C     -2.372275   -0.982165    1.415579
F     -3.457687   -1.742593    1.622239
H     -0.512784    4.130991   -2.823412
H      2.784295    1.446196    1.641234
H      3.765097    3.299733    0.265288
H      2.497106    4.417747   -1.538922
