35

C     -1.065785   -5.592721   -2.384913
C     -0.996689   -4.301714   -1.627838
C     -1.418447   -3.097458   -2.237121
C     -1.387578   -1.836869   -1.595413
C     -0.926457   -1.643461   -0.274916
C     -0.910968   -0.331348    0.370786
C     -2.084122    0.122026    1.001079
C     -2.141169    1.372839    1.619082
C      0.223737    0.509310    0.369774
C      1.525214    0.124874   -0.301256
C      1.601350    0.635253   -1.732793
C      0.148132    1.771330    0.992571
C     -1.020792    2.203475    1.629634
C     -1.084261    3.561718    2.262135
C     -0.492375   -2.819267    0.403235
N     -0.021426   -2.898507    1.661009
S      0.338426   -4.489416    1.942495
N     -0.081605   -5.166554    0.489450
C     -0.528479   -4.167167   -0.289889
H     -0.456830   -5.528809   -3.292338
H     -0.695985   -6.432983   -1.789979
H     -2.101712   -5.807871   -2.665680
H     -1.791508   -3.133880   -3.262546
H     -1.737029   -0.967862   -2.155975
H     -2.970922   -0.509238    1.016078
H     -3.066796    1.689071    2.094068
H      2.363575    0.535662    0.275792
H      1.671168   -0.960107   -0.284668
H      1.526756    1.727332   -1.770048
H      2.555010    0.346502   -2.185958
H      0.795741    0.223998   -2.349033
H      1.019461    2.424629    0.981250
H     -1.391778    4.305617    1.520800
H     -0.108901    3.848579    2.669087
H     -1.798125    3.573981    3.092498
