43

C      4.587402    3.326710    3.246776
C      3.569309    2.710094    2.507707
C      3.641937    1.347045    2.850547
C      3.035799    0.163263    2.590197
S      3.856345   -1.050326    3.546953
C      4.962508    0.081073    4.254092
C      4.677837    1.294258    3.750040
O      5.312360    2.460739    4.045320
C      1.935412   -0.190771    1.695136
C      1.893288    0.311342    0.398818
C      0.835084   -0.007366   -0.470549
C     -0.262180   -0.824039   -0.111168
C     -0.167144   -1.365833    1.212817
C      0.902119   -1.036269    2.094785
C     -1.221013   -2.263814    1.540879
C     -1.317512   -2.911602    2.754524
S     -2.682703   -3.940241    2.836713
C     -3.156486   -3.530190    1.242719
C     -2.299602   -2.627651    0.649150
C     -2.457028   -2.110151   -0.652123
C     -3.512159   -2.469648   -1.532402
O     -4.530056   -3.376407   -1.344398
C     -5.301719   -3.375303   -2.472758
C     -4.821516   -2.482226   -3.408044
C     -3.703684   -1.940652   -2.786119
C     -2.787109   -0.959476   -3.184226
C     -2.769576   -0.231722   -4.328675
O     -1.726783    0.643083   -4.223482
C     -1.126069    0.424075   -3.006547
C     -1.728939   -0.609879   -2.315280
C     -1.413138   -1.142970   -1.012497
H      4.912107    4.357100    3.312680
H      2.885597    3.203945    1.832512
H      5.726771   -0.190906    4.967044
H      2.698176    0.943365    0.027505
H      0.935570    0.383020   -1.473594
H      0.921279   -1.443698    3.101482
H     -0.670744   -2.857439    3.617746
H     -4.051608   -3.991155    0.853072
H     -6.144640   -4.052608   -2.452123
H     -5.242879   -2.276430   -4.380734
H     -3.360414   -0.169896   -5.230807
H     -0.320242    1.114390   -2.818375
