39

C     -2.685399   -2.901305   -0.167804
N     -2.222316   -1.630947    0.395452
C     -2.886180   -0.446504    0.119538
O     -4.021959   -0.508218   -0.658589
C     -2.437930    0.721279    0.588356
C     -1.216766    0.726571    1.418719
O     -0.843376    1.786746    1.908758
N     -0.521999   -0.445313    1.573654
C     -1.029351   -1.537342    1.097335
S     -0.068174   -2.989347    1.398537
C      1.544816   -2.399960    0.806436
C      1.445688   -1.964548   -0.650499
O      1.377642   -2.801037   -1.547178
N      1.409928   -0.586134   -0.801598
C      1.286006    0.166124   -2.001205
C      1.266452   -0.462468   -3.253099
C      1.118131    0.273584   -4.425635
C      0.987095    1.654718   -4.367225
C      1.012066    2.324123   -3.138569
C      0.880106    3.723107   -3.118765
C      0.903715    4.431678   -1.921174
C      1.067345    3.747913   -0.727328
C      1.204857    2.356207   -0.731650
C      1.171243    1.593867   -1.929211
H     -2.020033   -3.223886   -0.976024
H     -2.723473   -3.679868    0.601766
H     -3.697779   -2.841675   -0.581127
H     -4.355366    0.392716   -0.808522
H     -2.907547    1.677177    0.410627
H      2.269930   -3.218012    0.867645
H      1.919234   -1.593890    1.444877
H      1.366312   -0.058640    0.061622
H      1.366266   -1.537433   -3.358886
H      1.104424   -0.236457   -5.385536
H      0.870324    2.207088   -5.297404
H      0.758052    4.277667   -4.047289
H      0.799840    5.513184   -1.922869
H      1.089595    4.288834    0.216027
H      1.341779    1.889081    0.239032
