43

C      6.203495    1.566287   -3.460437
C      6.876019    2.460508   -2.626819
C      6.167771    2.720251   -1.431802
C      6.462020    3.509597   -0.380197
S      5.180721    3.376630    0.741606
C      4.264101    2.251253   -0.233488
C      2.955192    1.723315    0.236013
C      2.413766    2.109741    1.473213
C      1.180598    1.622956    1.933831
C      0.409454    0.717163    1.184723
C      0.936092    0.319218   -0.056812
C      0.209278   -0.576090   -0.834637
C     -1.017153   -1.066421   -0.387257
C     -1.574982   -0.688337    0.852957
C     -0.835060    0.223634    1.645709
N     -1.289949    0.640129    2.843662
C     -2.473545    0.185204    3.306993
C     -3.306677   -0.702860    2.653728
C     -4.544628   -1.087207    3.296119
C     -5.490629   -1.976603    2.759548
C     -5.061124   -2.428078    1.527912
C     -5.766375   -3.309469    0.751235
N     -5.023012   -3.512991   -0.383665
C     -3.858716   -2.769925   -0.329654
C     -3.842569   -2.072019    0.857182
C     -2.848760   -1.165082    1.373670
C      2.180883    0.819486   -0.506346
C      4.965085    2.003729   -1.399804
S      4.667164    0.968774   -2.871314
H      6.535110    1.209286   -4.426054
H      7.833574    2.892581   -2.891098
H      7.320616    4.140182   -0.197712
H      2.930163    2.805954    2.129434
H      0.820834    1.965531    2.903964
H      0.585560   -0.906327   -1.800861
H     -1.524754   -1.757387   -1.043748
H     -2.737370    0.589319    4.282208
H     -4.775400   -0.660807    4.274918
H     -6.409594   -2.250182    3.256623
H     -6.715745   -3.808251    0.891916
H     -5.286525   -4.118544   -1.150365
H     -3.182722   -2.840739   -1.164629
H      2.520984    0.467900   -1.471211
