25

N     -2.566712    1.750892    2.572378
C     -2.843743    0.886788    1.848135
C     -3.218358   -0.167234    0.946205
C     -4.572052   -0.536748    0.885676
C     -4.989168   -1.560008    0.035417
C     -4.058374   -2.221418   -0.759010
C     -2.710374   -1.859920   -0.704689
C     -2.264414   -0.828296    0.143934
C     -0.830804   -0.488043    0.164297
C     -0.375148    0.739710   -0.354966
C      0.980612    1.098269   -0.350348
C      1.862707    0.165600    0.191240
N      3.216729    0.148295    0.373852
N      3.632227   -0.996154    0.940942
N      2.558252   -1.747259    1.153012
C      1.462651   -1.058764    0.705246
C      0.102958   -1.399501    0.697115
H     -5.309132   -0.028486    1.505784
H     -6.038803   -1.841741   -0.005428
H     -4.379050   -3.020769   -1.423315
H     -1.999642   -2.389021   -1.338752
H     -1.090995    1.445787   -0.776791
H      1.313565    2.051486   -0.746501
H      3.903153    0.855662    0.143369
H     -0.208602   -2.355244    1.106589
