26

N     -0.967358   -4.732872    1.938301
C     -0.914277   -3.857648    0.850416
C     -1.730885   -4.071716   -0.263766
C     -1.782411   -3.139700   -1.306145
C     -1.052134   -1.956076   -1.230434
C     -0.280279   -1.715767   -0.086043
O      0.442376   -0.554265    0.075357
C     -0.224360   -2.648042    0.952873
N     -1.131974   -1.038202   -2.292210
C     -0.461040    0.057674   -2.151060
C      0.368048    0.373625   -0.952979
C      1.034847    1.530240   -0.856762
C     -0.500179    1.075736   -3.224231
C      0.163080    2.232780   -3.133949
C      0.973670    2.537474   -1.935780
N      1.608212    3.649325   -1.836329
H     -0.156060   -4.706752    2.547898
H     -1.235626   -5.683752    1.700121
H     -2.338351   -4.971200   -0.332840
H     -2.408557   -3.333542   -2.173090
H      0.355135   -2.425866    1.843981
H      1.627262    1.725357    0.032130
H     -1.104868    0.826095   -4.092054
H      0.100611    2.948670   -3.948371
H      2.174061    3.884291   -1.019376
H      1.580609    4.360743   -2.568302
