33

Si     1.834826    0.453451   -2.999682
C      3.414443    1.534750   -3.101813
C      3.730819    2.065246   -1.901067
C      2.845857    1.714656   -0.826476
C      1.747601    0.871228   -1.157809
C      0.899725    0.560961   -0.130123
S      1.487981    1.342011    1.298923
C      2.847673    2.061059    0.504370
C      3.799554    2.861422    1.225878
C      5.180360    2.791525    1.174286
N      5.868058    3.698586    1.959987
C      5.000807    4.444533    2.606804
S      3.345578    4.114003    2.312362
C     -0.289075   -0.262736   -0.163571
N     -0.688954   -0.843602   -1.278242
C     -1.841977   -1.569026   -1.044441
C     -2.328358   -1.546060    0.248956
S     -1.286842   -0.569738    1.203537
C     -3.508927   -2.203305    0.799073
N     -4.227694   -2.931964   -0.059414
C     -5.293962   -3.512980    0.483459
N     -5.672533   -3.422104    1.755868
C     -4.874071   -2.668219    2.507756
N     -3.781811   -2.033814    2.094058
H      0.766213    1.063575   -3.830178
H      2.184522   -0.957163   -3.302879
H      3.929411    1.667593   -4.039623
H      4.583528    2.720029   -1.761354
H      5.745984    2.086108    0.577068
H      5.307723    5.226821    3.288696
H     -2.298840   -2.108361   -1.866616
H     -5.912992   -4.117264   -0.171339
H     -5.138978   -2.561675    3.554396
