47

Si     0.947427   -4.295077    0.073346
C     -0.724089   -3.466548    0.136691
C     -0.629068   -2.125332    0.068796
C     -1.685843   -1.158593    0.064575
C     -1.362775    0.136126   -0.324417
O     -2.459259    0.935858   -0.414055
C     -3.519583    0.175187   -0.005624
C     -4.854873    0.620552    0.052024
C     -5.855091   -0.238599    0.539920
C     -5.368143   -1.471946    0.974954
C     -6.202451   -2.404545    1.549213
S     -5.336463   -3.797364    2.082573
C     -3.826832   -3.155105    1.549431
C     -4.028922   -1.952744    0.940016
C     -3.051674   -1.080470    0.358853
C     -0.040929    0.674125   -0.606941
N      0.057485    1.986795   -0.918404
C      1.309009    2.457452   -1.122732
C      2.475562    1.694745   -1.030020
C      2.322770    0.335622   -0.711364
C      1.052079   -0.204014   -0.491015
C      0.774734   -1.634825   -0.174034
C      1.710067   -2.608845   -0.176010
C      3.783405    2.281863   -1.274746
C      4.168766    2.937317   -2.477749
C      5.469744    3.512739   -2.717998
C      6.529989    3.502570   -1.783646
C      6.131728    2.867082   -0.616639
C      6.882153    2.678898    0.512471
O      6.132027    2.027728    1.453515
C      4.893857    1.804498    0.913786
C      4.849381    2.292118   -0.368212
H      1.326632   -4.898923    1.372316
H      1.103667   -5.164666   -1.116132
H     -1.611184   -4.071031    0.178785
H     -5.100452    1.626603   -0.274764
H     -6.891662    0.070083    0.602068
H     -7.270137   -2.349322    1.712523
H     -2.922435   -3.699215    1.759911
H      1.351695    3.517468   -1.364657
H      3.205421   -0.294993   -0.649832
H      2.768359   -2.520959   -0.359555
H      3.440955    3.006071   -3.289206
H      5.642467    3.985084   -3.686543
H      7.500099    3.939158   -1.972603
H      7.890643    2.927277    0.811109
H      4.191112    1.305101    1.565973
