40

C     -3.885153   -0.359767   -0.975745
C     -2.792452   -0.980337   -0.367624
C     -1.522776   -0.384549   -0.383277
C     -1.357299    0.860178   -1.024128
C     -2.473403    1.440161   -1.618109
C     -3.746764    0.873409   -1.619316
O     -2.147240    2.627931   -2.193178
C     -0.819050    2.825126   -1.976002
C     -0.101698    3.936167   -2.416354
C      1.257711    3.971812   -2.102318
C      1.852912    2.936282   -1.379283
C      1.109112    1.820587   -0.940535
C      1.737285    0.742677   -0.178972
C      2.382329   -0.309736   -0.842573
C      2.985824   -1.358948   -0.135788
C      2.946379   -1.357543    1.272219
C      2.304221   -0.299227    1.919617
C      1.698685    0.757182    1.226658
N      2.404408   -0.531810    3.272374
C      3.081803   -1.693483    3.508676
N      3.337600   -2.187223    4.734373
C      4.025221   -3.351582    4.697339
C      4.445599   -4.009185    3.548100
C      4.151983   -3.451269    2.302964
C      3.438750   -2.240169    2.282420
C     -0.271631    1.767106   -1.253955
H     -4.859801   -0.842470   -0.950166
H     -2.924327   -1.940962    0.126098
H     -0.684600   -0.884534    0.093430
H     -4.582464    1.369318   -2.097723
H     -0.583327    4.729355   -2.975609
H      1.860215    4.818332   -2.424595
H      2.915714    2.995220   -1.147993
H      2.414317   -0.324397   -1.930932
H      3.476555   -2.164936   -0.673476
H      1.204172    1.564736    1.759963
H      2.036868    0.057154    4.003170
H      4.246038   -3.773050    5.675591
H      4.993877   -4.942298    3.619889
H      4.464104   -3.936354    1.384553
