45

C     -3.823025   -1.750609    5.366328
N     -4.530430   -1.607997    4.195301
C     -3.669256   -1.372328    3.146687
C     -2.384400   -1.361078    3.639703
C     -2.496861   -1.602314    5.049012
C     -1.462573   -1.679466    5.967105
C     -0.226601   -1.484556    5.328469
C     -0.087079   -1.237856    3.898070
C      1.141603   -1.040464    3.241345
C      2.394121   -1.042640    3.801480
O      3.331783   -0.815594    2.838370
C      2.670135   -0.667194    1.652320
C      1.316414   -0.796780    1.844508
C      0.273871   -0.717753    0.911513
C      0.378509   -0.482266   -0.466399
N      1.445807   -0.266641   -1.303784
C      1.038004   -0.080866   -2.604902
C     -0.337791   -0.180308   -2.604618
C     -0.760735   -0.431894   -1.268357
C     -2.003228   -0.620985   -0.667856
N     -2.104523   -0.848914    0.665757
C     -1.026023   -0.905276    1.477548
C     -1.172829   -1.153768    2.915617
C      1.985788    0.162437   -3.661836
S      1.482401    0.396325   -5.295505
C      3.087214    0.605883   -5.861477
C      3.992827    0.502102   -4.838787
N      5.335811    0.629676   -5.023498
C      5.999975    0.482671   -3.844852
C      5.397462    0.234007   -2.604814
N      4.056990    0.101696   -2.390234
C      3.363487    0.245953   -3.565166
H     -4.332563   -1.941968    6.300660
H     -5.536667   -1.666823    4.111483
H     -4.062199   -1.235618    2.148608
H     -1.568543   -1.862347    7.026350
H      0.668194   -1.522384    5.947979
H      2.784782   -1.179541    4.799673
H      3.318515   -0.481139    0.810703
H      2.420089   -0.240534   -1.036170
H     -0.984214   -0.084251   -3.467533
H     -2.935720   -0.596993   -1.220118
H      3.286874    0.793165   -6.906496
H      7.080590    0.572697   -3.917231
H      6.014178    0.131450   -1.715530
