47

C      0.807559    6.972355   -0.468778
C      1.120922    6.593654    0.970661
C      2.537297    6.042374    1.166563
C      2.821916    4.729444    0.436245
C      2.079831    3.529375    1.011073
O      1.468279    3.583822    2.070840
N      2.220128    2.414343    0.198252
C      1.698044    1.122107    0.412952
C      0.966144    0.752527    1.545115
C      0.483872   -0.553792    1.685258
C      0.716504   -1.492132    0.679759
C      0.220098   -2.874268    0.851997
O      0.569602   -3.485282    1.858716
N     -0.596696   -3.421474   -0.141523
C     -1.069329   -4.787609    0.092240
C     -1.589600   -5.464657   -1.189307
N     -2.562935   -4.669504   -1.966690
C     -3.864109   -4.610519   -1.303760
C     -2.007922   -3.323642   -2.208748
C     -1.495086   -2.590043   -0.953896
C      1.465759   -1.144135   -0.446246
C      1.949122    0.160945   -0.577989
H      0.768928    6.091856   -1.116485
H      1.556845    7.664125   -0.866212
H     -0.169153    7.464086   -0.522755
H      1.013005    7.489246    1.594555
H      0.374927    5.874944    1.326205
H      2.714130    5.909640    2.241087
H      3.258333    6.795141    0.824337
H      3.893473    4.509965    0.524024
H      2.595194    4.822661   -0.630799
H      2.755394    2.540104   -0.651527
H      0.761727    1.453794    2.348488
H     -0.066682   -0.834621    2.580272
H     -1.857491   -4.739184    0.853321
H     -0.252217   -5.387641    0.509599
H     -0.731751   -5.667208   -1.844330
H     -2.011777   -6.446885   -0.944270
H     -4.580338   -4.057829   -1.921942
H     -4.273858   -5.619250   -1.180626
H     -3.829426   -4.135586   -0.318244
H     -2.744597   -2.697780   -2.727137
H     -1.168970   -3.433107   -2.908873
H     -2.332554   -2.297366   -0.309018
H     -1.000450   -1.666595   -1.262870
H      1.680747   -1.885220   -1.211878
H      2.528643    0.411391   -1.462946
