42

C      2.442195    3.755160   -0.532188
N      2.367722    2.327444   -0.241491
C      3.546755    1.561803   -0.170565
C      4.830976    2.049569   -0.453942
C      5.960747    1.227021   -0.350593
C      5.829462   -0.103965    0.034046
C      4.566122   -0.617353    0.306962
C      3.440982    0.206014    0.197305
O      2.230864   -0.397172    0.472618
C      1.085732    0.336049    0.235202
C     -0.119106   -0.363143    0.383761
C     -1.348569    0.266777    0.156336
C     -2.620015   -0.461625    0.306133
C     -2.818674   -1.707957   -0.313852
C     -4.023812   -2.403953   -0.173437
C     -5.057673   -1.860571    0.593784
C     -4.883141   -0.625958    1.214874
C     -3.672283    0.068104    1.073091
C     -5.968368   -0.037832    2.024931
O     -5.851490    1.050769    2.571880
C     -7.221799   -0.805998    2.158063
C     -7.387672   -1.989834    1.563827
C     -6.326783   -2.600510    0.739219
O     -6.509705   -3.684686    0.201736
C     -1.323205    1.615653   -0.225934
C     -0.113884    2.314524   -0.368837
C      1.117378    1.693773   -0.129669
H      1.613850    4.315591   -0.085857
H      3.335258    4.221427   -0.102468
H      2.440668    3.926790   -1.613840
H      4.989792    3.073680   -0.774312
H      6.944855    1.631312   -0.574963
H      6.706583   -0.740120    0.114708
H      4.450476   -1.656775    0.600114
H     -0.081184   -1.406657    0.687664
H     -2.031381   -2.145666   -0.926946
H     -4.149743   -3.366472   -0.666603
H     -3.546180    1.026136    1.577724
H     -7.999675   -0.354481    2.763149
H     -8.307653   -2.555218    1.658774
H     -2.252908    2.143378   -0.432963
H     -0.174303    3.350103   -0.686642
