39

Si     3.934958    3.917957    1.245723
C      5.091903    2.712443    0.412613
C      4.435464    1.603753    0.021344
C      5.064398    0.489699   -0.653980
C      4.339453   -0.583276   -1.014254
C      2.896529   -0.648560   -0.730907
C      2.078933   -1.741743   -1.077922
C      2.512863   -2.881793   -1.716469
S      1.240396   -4.007890   -1.965309
C      0.090016   -2.979638   -1.217454
C      0.656345   -1.797719   -0.795514
C     -0.061026   -0.774113   -0.148408
C      0.769948    0.322246    0.203544
C      2.177459    0.400397   -0.066375
C      2.985833    1.586541    0.329513
C      2.543507    2.695180    0.960377
C     -1.490404   -0.814169    0.138919
C     -1.944947   -0.994100    1.447020
C     -3.313660   -1.029994    1.740022
C     -4.269419   -0.879463    0.709278
C     -5.703825   -0.881504    0.758078
C     -6.281093   -0.701573   -0.476995
S     -5.113960   -0.527865   -1.707463
C     -3.807497   -0.693835   -0.595348
C     -2.430150   -0.656835   -0.892920
H      3.756691    5.167232    0.467255
H      4.240174    4.097278    2.685678
H      6.140431    2.931169    0.288683
H      6.127856    0.535384   -0.864432
H      4.824005   -1.408985   -1.519499
H      3.503398   -3.142631   -2.058928
H     -0.936606   -3.309760   -1.133715
H      0.288188    1.159860    0.707280
H      1.545095    2.928368    1.289486
H     -1.230867   -1.116854    2.259979
H     -3.639271   -1.175922    2.766984
H     -6.280525   -1.010059    1.665719
H     -7.334936   -0.663375   -0.716137
H     -2.101317   -0.505109   -1.918590
