27

C     -2.647951    0.097201   -1.570836
C     -1.997559   -0.899070   -0.623817
C     -0.583570   -1.316388   -1.045518
C      0.440386   -0.166507   -1.114633
C      1.806969   -0.689632   -1.568766
N      0.540962    0.531877    0.179791
N      1.019124   -0.215338    1.269500
C      1.614122    0.659955    2.156210
O      1.958059    0.439121    3.302599
C      1.711883    1.961308    1.475120
C      1.052228    1.819538    0.314084
N      0.892522    2.816302   -0.609957
H     -3.689486    0.266837   -1.279317
H     -2.137748    1.064544   -1.547946
H     -2.640741   -0.275567   -2.599865
H     -2.622815   -1.799281   -0.583608
H     -1.986733   -0.483905    0.390183
H     -0.233149   -2.087429   -0.347528
H     -0.640547   -1.800866   -2.028996
H      0.096120    0.542620   -1.876953
H      1.732491   -1.151956   -2.558817
H      2.538575    0.122794   -1.633443
H      2.204222   -1.440981   -0.877756
H      0.472276   -0.981989    1.641107
H      2.205896    2.819031    1.887246
H     -0.008246    2.739774   -1.073349
H      1.035385    3.744002   -0.220571
