30

C     -2.409764   -0.155210    6.403117
C     -1.337065    0.667324    6.128103
N     -0.907847    0.896365    4.867485
C     -1.586280    0.275379    3.882922
C     -1.192435    0.471347    2.563021
C     -1.855890   -0.145158    1.494322
C     -1.458388    0.046680    0.093629
N     -2.052151   -0.512912   -0.952545
C     -1.370356   -0.070411   -2.050676
N     -1.608055   -0.371056   -3.350349
C     -0.760059    0.221985   -4.225724
N     -0.751435    0.110074   -5.589958
C      0.252541    0.868258   -5.982152
N      0.893840    1.465988   -4.928307
C      0.260168    1.064802   -3.791899
N      0.530858    1.389903   -2.510512
C     -0.336494    0.777916   -1.677631
N     -0.405966    0.841115   -0.320734
C     -2.941626   -0.976341    1.788472
C     -3.346664   -1.180955    3.110389
C     -2.687855   -0.569315    4.165289
N     -3.100988   -0.785340    5.429647
H     -2.746411   -0.332588    7.417977
H     -0.788799    1.168619    6.917386
H     -0.343054    1.127290    2.398737
H      0.561548    1.022834   -7.008067
H      1.686846    2.087957   -4.972440
H      0.212911    1.380307    0.263074
H     -3.484643   -1.474677    0.985217
H     -4.193219   -1.830869    3.318367
