33

C      0.354035   -6.431487   -0.523444
C     -0.984302   -6.646157   -0.225238
C     -1.830736   -5.570316    0.052379
C     -1.304055   -4.264124    0.024771
S     -2.144478   -2.800017    0.329476
C     -0.758200   -1.815733    0.076574
C     -0.821794   -0.337633    0.200083
C     -1.998853    0.350386    0.526841
C     -2.031991    1.752820    0.637634
C     -0.889434    2.540822    0.427398
C     -0.888137    4.021366    0.535858
C     -2.006509    4.794494    0.855071
N     -1.991405    6.151360    0.951191
C     -0.797603    6.729986    0.713587
C      0.324380    5.990598    0.396020
N      0.303302    4.640341    0.301766
C      0.286591    1.843350    0.100195
C      0.321619    0.443513   -0.010848
C      0.327158   -2.618405   -0.237016
C      0.035158   -4.023889   -0.271768
C      0.870786   -5.132604   -0.549256
H      1.005279   -7.275231   -0.738224
H     -1.379830   -7.658999   -0.206857
H     -2.877964   -5.739934    0.285610
H     -2.929953   -0.182220    0.706218
H     -2.989066    2.198488    0.894969
H     -2.977985    4.357485    1.050920
H     -0.766000    7.810780    0.785560
H      1.280648    6.464261    0.206443
H      1.211800    2.391952   -0.076622
H      1.274590   -0.010615   -0.267824
H      1.317168   -2.231873   -0.440880
H      1.920588   -4.976018   -0.784035
