47

C     -3.534044    0.059062   -2.717847
C     -3.858821   -1.399117   -2.706759
C     -2.911239   -2.066608   -2.027718
C     -2.798343   -3.507844   -1.789857
C     -3.737013   -4.443352   -2.236597
C     -3.544229   -5.795136   -1.972550
C     -2.415224   -6.169207   -1.268603
N     -1.487061   -5.298383   -0.819603
C     -1.677290   -3.972935   -1.077967
C     -0.634736   -3.039940   -0.553558
C      0.472174   -3.538860    0.154232
C      1.458689   -2.697791    0.675174
C      1.342102   -1.309463    0.504795
C      2.153884   -0.215975    0.916562
C      1.556180    0.943443    0.476796
N      0.397819    0.575876   -0.162293
C      0.245027   -0.793734   -0.195942
C     -0.749108   -1.629574   -0.753588
C     -1.901329   -1.126989   -1.530104
C     -2.251077    0.106105   -1.940550
C      1.863745    2.329801    0.583857
C      2.126277    2.807404    1.825203
C      2.411755    4.214286    2.100623
C      2.430162    5.143960    1.128556
C      2.177302    4.728226   -0.234866
C      2.195737    5.543076   -1.305825
Si     1.871455    4.580265   -2.874866
C      1.724607    3.029498   -1.836912
C      1.897687    3.299077   -0.525514
H     -3.388599    0.423729   -3.738895
H     -4.315839    0.643979   -2.224714
H     -4.723995   -1.819147   -3.194964
H     -4.618602   -4.134580   -2.789211
H     -4.258187   -6.538348   -2.309069
H     -2.219225   -7.212455   -1.037857
H      0.578169   -4.611568    0.310748
H      2.301485   -3.119627    1.215118
H      3.080796   -0.277136    1.471547
H     -0.256730    1.241692   -0.536241
H     -1.735686    1.035603   -1.787840
H      2.109631    2.153342    2.693848
H      2.603868    4.490506    3.132856
H      2.641077    6.185022    1.344214
H      2.387516    6.603911   -1.320303
H      3.045043    4.553030   -3.779983
H      0.580740    4.948332   -3.506025
H      1.549835    2.070349   -2.297113
