42

C     -5.995470    2.845389    3.467764
C     -5.582520    3.582418    2.388373
C     -4.399452    3.051991    1.770945
C     -3.689644    3.529801    0.654813
C     -2.544824    2.868780    0.195968
C     -2.032147    1.708373    0.800402
C     -0.833819    1.044869    0.294014
C     -0.090709    1.494861   -0.826062
C      1.060275    0.840658   -1.298558
C      1.545249   -0.313695   -0.683117
C      0.847170   -0.787036    0.429277
C     -0.315168   -0.129854    0.906322
C     -1.014331   -0.641653    2.042474
N     -0.675924   -1.739423    2.746133
S     -1.789146   -1.902274    3.953236
N     -2.751515   -0.601828    3.639657
C     -2.250143    0.040139    2.567721
C     -2.760200    1.221443    1.942050
C     -3.930477    1.897305    2.410933
S     -4.975020    1.518804    3.749002
C      2.744201   -0.979855   -1.174829
C      4.015121   -0.354149   -1.313452
C      5.203821   -1.009886   -1.796263
C      5.255389   -2.362449   -2.199321
C      4.008143   -2.955957   -2.064998
C      3.703344   -4.255241   -2.377842
N      2.361778   -4.425933   -2.109854
C      1.814507   -3.251024   -1.636927
C      2.822996   -2.318174   -1.584876
H     -6.850147    3.024156    4.105550
H     -6.101477    4.469471    2.046390
H     -4.031243    4.424525    0.138362
H     -2.065625    3.313621   -0.672137
H     -0.387665    2.381622   -1.379283
H      1.570414    1.244772   -2.171914
H      1.210285   -1.677351    0.943248
H      4.109508    0.693684   -1.023776
H      6.120536   -0.421757   -1.850162
H      6.150731   -2.845932   -2.561356
H      4.297880   -5.071147   -2.765165
H      1.848799   -5.287003   -2.246763
H      0.763553   -3.201139   -1.386449
