39

C     -1.676960   -5.225974    3.761220
C     -1.201355   -4.090122    3.095398
C     -2.205916   -3.436637    2.326570
C     -2.240010   -2.340433    1.524421
S     -3.847316   -2.217722    0.888347
C     -4.405238   -3.610646    1.728183
C     -3.393209   -4.159840    2.459778
S     -3.371319   -5.617733    3.517755
C     -1.219531   -1.387318    1.188452
C     -0.044970   -1.059023    1.848051
C      0.558596   -0.071512    1.067394
C      1.778297    0.633661    1.253585
C      2.613909    0.433034    2.312650
S      3.961484    1.479433    2.151635
C      3.355644    2.146343    0.673821
C      2.148313    1.607602    0.273979
C      1.414678    1.958081   -0.891377
C      1.749187    2.921847   -1.890287
S      3.117480    3.985957   -2.060024
C      2.559970    4.675473   -3.518719
C      1.358778    4.143768   -3.917490
C      0.931852    3.168604   -2.989723
C     -0.296397    2.439278   -3.144884
N     -1.110910    2.635358   -4.172359
S     -2.353570    1.558831   -3.868529
N     -1.817453    0.874817   -2.438920
C     -0.636349    1.463173   -2.135242
C      0.185566    1.200287   -1.010163
C     -0.189896    0.233205   -0.046279
N     -1.290966   -0.593639    0.056740
H     -1.107029   -5.884385    4.402768
H     -0.169175   -3.774240    3.171102
H     -5.423273   -3.966904    1.652356
H      0.306359   -1.479924    2.778912
H      2.528283   -0.241246    3.152789
H      3.970706    2.904017    0.219631
H      3.142106    5.440196   -4.015162
H      0.834562    4.445028   -4.816948
H     -2.046641   -0.610552   -0.617501
