37

Si     2.017114   -3.732934    3.529037
C      2.257879   -2.992050    5.261945
C      2.034381   -1.664354    5.305812
C      1.660918   -1.124439    4.002797
C      1.588660   -2.036124    2.917561
C      1.238847   -1.646220    1.602143
S      1.095137   -2.600980    0.147475
C      0.658383   -1.251916   -0.787807
C      0.357615   -1.238268   -2.182603
C      0.043509    0.000291   -2.635190
Si     0.128541    1.277562   -1.189613
C      0.616950   -0.096585   -0.033975
C      0.938629   -0.310579    1.294039
C      1.000769    0.647236    2.369839
C      0.769640    1.991426    2.391545
N      0.983194    2.373916    3.703260
C      1.339639    1.280637    4.473014
C      1.356818    0.178583    3.649793
C     -0.293708    0.277685   -3.983999
C     -0.394150   -0.526140   -5.109566
C     -0.770567    0.283061   -6.207431
C     -0.894317    1.567326   -5.737025
N     -0.605453    1.556576   -4.396287
H      3.299025   -4.262212    2.998779
H      0.879202   -4.686662    3.516465
H      2.545418   -3.624712    6.087205
H      2.115600   -1.049100    6.189920
H      0.386021   -2.136358   -2.786565
H      1.178183    2.295741   -1.454869
H     -1.209196    1.876740   -0.944115
H      0.483010    2.720856    1.649833
H      0.892265    3.318985    4.053006
H      1.544010    1.402357    5.527909
H     -0.214556   -1.593100   -5.141745
H     -0.932644   -0.039202   -7.227758
H     -1.162357    2.488092   -6.237414
H     -0.625076    2.381877   -3.814468
