28

C     -3.698342   -2.145482   -3.552201
C     -3.037439   -2.751379   -2.495044
C     -2.077390   -2.031249   -1.780464
C     -1.790363   -0.708908   -2.134824
C     -0.781552    0.136747   -1.429584
C     -0.020873   -0.300664   -0.346303
C      0.906580    0.561624    0.258539
C      1.090561    1.869754   -0.204794
C      2.047285    2.829638    0.383026
C      2.881188    2.557055    1.464473
C      3.746340    3.542939    1.935553
C      3.746804    4.768698    1.307202
N      2.943067    5.031228    0.264985
N      2.092663    4.054587   -0.194181
C      0.286850    2.216100   -1.289935
N     -0.617976    1.401241   -1.893554
N     -2.446315   -0.124135   -3.175524
C     -3.370197   -0.838767   -3.852098
H     -4.448534   -2.675336   -4.127437
H     -3.264477   -3.778697   -2.224334
H     -1.574670   -2.526246   -0.958835
H     -0.121630   -1.302517    0.053867
H      1.474180    0.173026    1.098750
H      2.880683    1.592990    1.958508
H      4.404298    3.352769    2.776041
H      4.392830    5.580019    1.620423
H      0.338519    3.206533   -1.739678
H     -3.852582   -0.309265   -4.668460
