41

C     -0.092930    3.630440   -6.627757
C      0.071539    2.747489   -5.424534
C      0.831666    1.560574   -5.516548
C      1.031461    0.725623   -4.405063
C      0.476610    1.081504   -3.184798
C     -0.263626    2.275906   -3.121918
C     -0.479747    3.121097   -4.195628
C      0.550597    0.378956   -1.901571
C      1.196569   -0.808255   -1.594731
C      1.138276   -1.298631   -0.278779
C      0.431895   -0.620494    0.745417
C      0.391038   -1.159822    2.113876
C      1.030555   -0.462047    3.152507
C      1.035788   -0.952607    4.465538
C      0.411108   -2.164828    4.782517
C     -0.248369   -2.869183    3.772016
C     -0.249617   -2.361082    2.463780
N     -0.965396   -3.124537    1.461216
O     -0.474273   -4.213631    1.133717
O     -2.020314   -2.644348    1.027643
C      0.396437   -2.666238    6.196660
C     -0.218411    0.580998    0.436172
C     -0.137476    1.037263   -0.868006
S     -0.856929    2.520318   -1.483872
O     -0.155006    3.642600   -0.899290
O     -2.295563    2.373047   -1.482634
H      0.744153    4.332171   -6.693369
H     -1.027337    4.198689   -6.571289
H     -0.130223    3.034391   -7.545588
H      1.275571    1.277954   -6.470553
H      1.616691   -0.182116   -4.518163
H     -1.056528    4.033327   -4.078576
H      1.746356   -1.365294   -2.347938
H      1.659590   -2.229739   -0.053185
H      1.543200    0.477152    2.945325
H      1.539468   -0.377319    5.241277
H     -0.760464   -3.802756    3.998329
H     -0.474965   -2.268213    6.725536
H      1.303862   -2.361169    6.728335
H      0.357415   -3.760316    6.222509
H     -0.776452    1.139888    1.182046
