47

S     -1.569203   -3.250694    2.672761
C     -1.765171   -1.806768    1.832481
N     -1.159601   -0.606262    2.188229
C      0.022979   -0.336977    2.913182
C      1.077103   -1.240945    3.056805
C      2.233930   -0.880378    3.755982
C      2.355294    0.394913    4.301117
C      1.323212    1.314460    4.139851
C      0.167243    0.952208    3.442895
N     -2.613878   -1.662014    0.711016
C     -3.419213   -2.765814    0.151156
C     -2.894853   -3.145521   -1.246646
N     -2.881638   -2.021942   -2.203588
C     -1.729758   -2.030970   -3.106567
C     -0.419190   -1.646603   -2.477800
C      0.313352   -0.587668   -2.861297
C      1.580852   -0.188457   -2.233558
C      2.578626    0.389794   -3.028913
C      3.780543    0.822090   -2.461843
C      3.991609    0.693082   -1.090826
C      3.001377    0.134068   -0.286562
C      1.801614   -0.302223   -0.854346
C     -3.154468   -0.717894   -1.580242
C     -2.518232   -0.495197   -0.189868
H     -1.756721    0.196370    2.047857
H      1.046501   -2.227628    2.607415
H      3.042737   -1.598654    3.865107
H      3.254698    0.672233    4.844475
H      1.415504    2.313873    4.556884
H     -0.623064    1.689971    3.332676
H     -3.429799   -3.649862    0.790693
H     -4.457747   -2.416520    0.094072
H     -1.893139   -3.573678   -1.119842
H     -3.524765   -3.940721   -1.661230
H     -1.623706   -3.029196   -3.550405
H     -1.951467   -1.367557   -3.952652
H     -0.064297   -2.289443   -1.676287
H     -0.022948    0.038122   -3.684914
H      2.432559    0.502101   -4.100729
H      4.550041    1.261386   -3.091129
H      4.924605    1.031535   -0.648227
H      3.156570    0.041635    0.785436
H      1.040056   -0.720405   -0.200911
H     -4.244330   -0.645976   -1.463457
H     -2.892730    0.111712   -2.248913
H     -1.463827   -0.225337   -0.301081
H     -3.024730    0.342465    0.303361
