43

Si     3.366430    2.473692   -6.020354
C      4.033195    1.760921   -4.380541
C      3.085620    1.756041   -3.417096
C      1.803934    2.269880   -3.815082
C      1.710361    2.728866   -5.160851
C      0.502846    3.242735   -5.516266
S     -0.565416    3.173349   -4.166927
C      0.617417    2.427597   -3.130364
C      0.260129    2.082609   -1.778192
N     -0.469307    2.872798   -1.014620
C     -0.677187    2.278153    0.214507
C     -0.116439    1.028066    0.375585
S      0.707109    0.583289   -1.059489
C     -0.148792    0.128083    1.528384
C      0.967073    0.120448    2.371333
C      0.990973   -0.694565    3.496223
C     -0.098544   -1.523940    3.825606
C      0.006551   -2.331000    5.054929
N      1.107488   -3.077012    5.201688
C      1.167364   -3.752793    6.345941
N      0.261092   -3.727928    7.319533
C     -0.777989   -2.936348    7.067834
N     -0.965248   -2.215418    5.965685
C     -1.240858   -1.541965    2.965734
C     -2.363356   -2.378605    3.195122
C     -3.474380   -2.391664    2.351029
C     -3.498724   -1.570053    1.239216
C     -2.409655   -0.742264    0.973105
C     -1.266088   -0.704926    1.810676
H      3.342244    1.436392   -7.081099
H      4.063980    3.733793   -6.376854
H      5.055804    1.429595   -4.296571
H      3.286143    1.402330   -2.412726
H      0.174793    3.658730   -6.459271
H     -1.256817    2.803753    0.964158
H      1.825378    0.755070    2.159079
H      1.871803   -0.677359    4.137510
H      2.038234   -4.380777    6.500590
H     -1.544715   -2.872575    7.832549
H     -2.390019   -3.050369    4.050756
H     -4.314081   -3.046763    2.567246
H     -4.357189   -1.572621    0.572896
H     -2.465887   -0.121627    0.080328
