39

Si    -0.807681   -4.580410    0.156383
C     -2.676087   -4.772589    0.274234
C     -3.326797   -3.594149    0.304874
C     -2.442766   -2.405015    0.239960
C     -1.077272   -2.766888    0.158029
C     -0.114743   -1.776380    0.089913
O      1.228421   -1.983951    0.008009
C      1.776750   -0.739223   -0.036351
C      3.106384   -0.290583   -0.122881
C      3.145428    1.100682   -0.136638
S      1.547168    1.780036   -0.042482
C      0.820098    0.212977    0.015425
C     -0.452105   -0.426466    0.099751
C     -1.824818   -0.046356    0.181951
C     -2.182856    1.318303    0.192860
C     -3.521034    1.699873    0.272837
C     -4.516087    0.731832    0.342752
C     -4.179087   -0.624580    0.333113
C     -2.835207   -1.050636    0.253106
C      4.346189    1.920069   -0.217991
S      5.928186    1.185728   -0.308406
C      6.754984    2.682976   -0.372981
C      5.831786    3.664622   -0.325307
C      5.958245    5.072484   -0.346019
C      4.722907    5.719398   -0.276121
S      3.311683    4.685119   -0.180090
C      4.485261    3.293402   -0.239214
H     -0.302248   -5.127370   -1.128082
H     -0.146417   -5.106515    1.377213
H     -3.125940   -5.752845    0.310414
H     -4.402197   -3.510147    0.371094
H      3.963077   -0.948923   -0.170916
H     -1.428403    2.098033    0.139475
H     -3.785140    2.754329    0.280462
H     -5.559866    1.029577    0.405148
H     -4.988573   -1.347409    0.389447
H      7.832398    2.739233   -0.439700
H      6.894107    5.614526   -0.408421
H      4.551608    6.787383   -0.275376
