40

C      2.776363   -0.047771    0.530246
C      2.999292    0.474067    1.947648
C      1.859024    0.965558    2.472397
C      0.815598    0.813967    1.477781
N     -0.436811    1.227958    1.630834
C     -1.231845    0.985825    0.555668
C     -0.867702    0.322406   -0.645707
C      0.506458   -0.007177   -0.739625
N      1.068516   -0.505499   -1.842500
C      0.285764   -0.642341   -2.926670
C     -1.079684   -0.386366   -2.961540
C     -1.759981   -0.540412   -4.172770
C     -3.125884   -0.318710   -4.250109
C     -3.858002   -0.025724   -3.103407
C     -5.252445    0.108849   -3.220045
C     -6.051357    0.308249   -2.101203
C     -5.461698    0.341769   -0.850902
C     -4.071644    0.222247   -0.730797
C     -3.201984    0.096078   -1.846039
C     -1.740510    0.023048   -1.778109
C      1.320266    0.221605    0.340548
C      4.227641    0.468927    2.665926
C      4.546187    0.915067    3.945625
C      5.922533    0.670807    4.167661
C      6.386949    0.087372    3.018434
O      5.386230   -0.038546    2.115435
H      3.381882    0.511916   -0.189609
H      2.992944   -1.118974    0.470447
H      1.682455    1.405487    3.438807
H     -2.213667    1.428296    0.679760
H      0.818402   -0.988180   -3.810362
H     -1.228002   -0.824546   -5.079283
H     -3.618941   -0.427493   -5.214223
H     -5.735162    0.037553   -4.193214
H     -7.128876    0.399551   -2.204899
H     -6.076605    0.442158    0.040155
H     -3.694898    0.162553    0.284194
H      3.856285    1.368847    4.643534
H      6.499839    0.892938    5.053643
H      7.352911   -0.278268    2.699618
