45

C     -0.750028    3.974772    1.308820
C     -0.621959    2.535359    0.875362
C     -1.517446    2.070886   -0.220035
C     -1.435608    0.781083   -0.606627
N     -2.263232    0.261777   -1.635290
C     -2.683665   -1.144098   -1.704933
C     -2.089031   -1.804114   -2.946913
C     -2.205184   -0.923130   -4.195205
C     -3.142731    0.259483   -3.975160
C     -2.710314    1.094967   -2.767052
N     -0.458635   -0.034390    0.054450
N     -0.132971   -1.340270   -0.187859
C      0.837707   -1.634516    0.678643
C      1.434185   -2.994419    0.670607
C      1.172724   -0.534388    1.502095
C      2.153550   -0.421637    2.568846
C      3.079415    0.629365    2.584233
C      4.032160    0.720569    3.601757
C      4.067051   -0.237762    4.612946
C      3.147964   -1.285474    4.610076
C      2.194726   -1.377414    3.592633
C      0.353771    0.495804    1.074646
N      0.253979    1.797857    1.485621
H     -1.043617    4.008436    2.362104
H     -1.496346    4.510394    0.716791
H      0.216646    4.473579    1.192339
H     -2.220103    2.772559   -0.643927
H     -2.447930   -1.714727   -0.802357
H     -3.780029   -1.174306   -1.763054
H     -2.597680   -2.759991   -3.119448
H     -1.032050   -2.043885   -2.782605
H     -1.209687   -0.546334   -4.462002
H     -2.547125   -1.524100   -5.045398
H     -3.171627    0.892040   -4.869644
H     -4.164894   -0.109967   -3.824338
H     -1.885834    1.748100   -3.080103
H     -3.541292    1.736796   -2.452614
H      1.004061   -3.602469    1.472549
H      1.247825   -3.505558   -0.279982
H      2.518499   -2.946857    0.812775
H      3.062149    1.386540    1.803344
H      4.743003    1.542433    3.604131
H      4.806481   -0.164294    5.405974
H      3.168377   -2.028550    5.402811
H      1.475872   -2.192444    3.616908
