32

O     -2.604339   -0.923540   -0.926769
C     -2.104652   -1.274740   -1.995553
C     -1.793625   -2.732377   -2.279754
S     -0.015762   -3.022565   -2.540581
C      0.721540   -2.564227   -0.976669
C      0.055372   -2.591943    0.253159
C      0.712743   -2.211492    1.428982
C      2.045688   -1.814246    1.383184
Cl     2.844217   -1.326859    2.826472
C      2.731084   -1.804729    0.173353
C      2.070262   -2.181062   -1.000150
N     -1.819332   -0.421742   -3.068939
N     -2.394442    0.822587   -3.119319
C     -2.064599    1.700913   -2.215687
C     -0.953481    1.668824   -1.252598
C     -1.144477    2.153145    0.039084
C     -0.063287    2.178466    0.916757
C      1.171229    1.744947    0.455760
N      1.391214    1.298757   -0.801325
C      0.318082    1.262836   -1.628276
H     -2.328341   -3.027414   -3.189204
H     -2.177227   -3.362742   -1.472530
H     -0.981750   -2.900792    0.335385
H      0.173512   -2.224129    2.372329
H      3.769756   -1.490117    0.127414
H      2.620204   -2.152543   -1.938672
H     -1.782214   -0.874899   -3.978951
H     -2.672172    2.622316   -2.187628
H     -2.123660    2.486124    0.370292
H     -0.178872    2.527593    1.936918
H      2.042270    1.745877    1.105591
H      0.529014    0.911283   -2.633440
