82

C      1.314480   -8.781332    0.825693
C      0.429531   -7.719601    0.974013
C      0.397100   -6.702025    0.015135
C      1.237988   -6.718372   -1.115964
C      1.187227   -5.619944   -2.107312
C      1.526750   -5.779072   -3.437674
C      1.451635   -4.664459   -4.255832
C      1.807455   -4.697742   -5.693226
C      2.770704   -5.586777   -6.208235
C      3.093965   -5.605825   -7.569645
C      2.461721   -4.731999   -8.450024
C      1.511051   -3.837120   -7.969884
C      1.191668   -3.820937   -6.608173
N      1.034620   -3.469555   -3.784096
C      0.704887   -3.396219   -2.484228
C      0.209211   -2.107533   -1.956386
C     -0.128707   -1.957156   -0.596052
C     -0.629682   -0.752453   -0.089527
C     -0.811277    0.340011   -0.941188
N     -1.364025    1.554008   -0.434747
C     -2.363443    2.305703   -1.058564
C     -3.095076    2.094533   -2.247095
C     -4.072318    3.024691   -2.614842
C     -4.340022    4.128951   -1.817781
C     -3.642263    4.319016   -0.623083
C     -2.651115    3.392197   -0.228066
C     -1.814790    3.295186    0.922120
C     -1.671534    4.095661    2.078404
C     -0.705843    3.789781    3.054724
N     -0.561624    4.618287    4.228623
C      0.750333    5.029515    4.669544
C      1.052578    5.150941    6.037248
C      2.314941    5.573944    6.464500
C      3.301135    5.880543    5.530983
C      3.028187    5.757446    4.171744
C      1.764641    5.337218    3.744317
C     -1.743934    5.061783    4.932342
C     -1.851627    6.375877    5.421145
C     -2.997220    6.798078    6.102474
C     -4.055004    5.914717    6.305290
C     -3.971046    4.610159    5.824360
C     -2.826346    4.187535    5.142055
C      0.114961    2.674825    2.852917
C     -0.018765    1.855021    1.724283
C     -1.011791    2.163393    0.773090
C     -0.469275    0.226296   -2.291950
C      0.037947   -0.982986   -2.786414
N      0.772070   -4.429788   -1.629210
C      2.124706   -7.804220   -1.237166
C      2.162437   -8.823780   -0.278294
H      1.349518   -9.569927    1.572931
H     -0.231322   -7.672576    1.836562
H     -0.303992   -5.879956    0.156573
H      1.813900   -6.744855   -3.830865
H      3.305171   -6.270247   -5.552561
H      3.842788   -6.301440   -7.939797
H      2.713455   -4.744504   -9.507271
H      1.019094   -3.146066   -8.649657
H      0.442412   -3.109750   -6.257767
H     -0.014334   -2.798023    0.088229
H     -0.915966   -0.710543    0.958787
H     -2.935096    1.219388   -2.869602
H     -4.634956    2.873076   -3.533554
H     -5.104138    4.842672   -2.116858
H     -3.870256    5.175617    0.005171
H     -2.297668    4.976463    2.192674
H      0.303357    4.911609    6.785354
H      2.517843    5.673155    7.525612
H      4.282927    6.209877    5.860941
H      3.797224    5.991624    3.440342
H      1.573329    5.264986    2.676689
H     -1.044349    7.086602    5.258745
H     -3.062125    7.817558    6.471375
H     -4.944817    6.240128    6.838332
H     -4.793238    3.915478    5.982609
H     -2.775062    3.159227    4.789220
H      0.870422    2.418237    3.593092
H      0.653486    1.012207    1.595341
H     -0.557218    1.071102   -2.971554
H      0.299873   -1.043793   -3.842308
H      2.820636   -7.864717   -2.070111
H      2.866091   -9.647891   -0.388668
