41

C     -3.541477    6.125804   -3.461400
O     -2.335204    5.663439   -4.055251
C     -1.660842    4.670961   -3.398538
C     -2.045872    4.068204   -2.199519
C     -1.262972    3.051774   -1.619333
C     -1.639485    2.434369   -0.417120
C     -0.852871    1.426324    0.149300
C     -0.074126    2.636954   -2.258133
C      0.302153    3.248534   -3.462159
C     -0.485660    4.255408   -4.023731
C      0.705945    1.621490   -1.676398
C      0.334167    1.018935   -0.466733
C      1.176061   -0.056350    0.077171
C      1.362595   -0.276203    1.388166
C      2.221019   -1.365376    1.879587
C      3.595097   -1.279254    1.651239
C      4.401359   -2.290802    2.129480
N      3.940456   -3.360461    2.808018
C      2.618550   -3.449069    3.032122
C      2.142614   -4.550747    3.730948
C      0.783983   -4.723792    4.004795
C     -0.130621   -3.775496    3.570356
C      0.320022   -2.659398    2.867178
C      1.697007   -2.474086    2.588758
H     -4.284415    5.323668   -3.400778
H     -3.353160    6.566823   -2.476974
H     -3.951226    6.910639   -4.104499
H     -2.956164    4.372002   -1.692905
H     -2.555680    2.729409    0.089739
H     -1.189741    0.959592    1.071365
H      1.212685    2.947645   -3.975015
H     -0.179456    4.719834   -4.957993
H      1.621378    1.303819   -2.172503
H      1.672136   -0.685292   -0.659819
H      0.893577    0.334920    2.154039
H      4.032089   -0.440418    1.120229
H      5.476845   -2.268046    1.978540
H      2.853953   -5.299628    4.072266
H      0.448697   -5.599847    4.553509
H     -1.190632   -3.902379    3.773915
H     -0.414140   -1.931940    2.528604
