34

O     -2.813680    4.376102    4.421395
C     -3.610054    3.456576    4.437539
O     -4.573229    3.382745    5.370212
C     -3.631231    2.315504    3.492616
C     -2.736530    2.330428    2.415741
C     -2.682655    1.258820    1.512487
C     -3.536184    0.159619    1.667980
N     -3.507567   -0.971725    0.797695
N     -4.135232   -2.125071    1.173523
N     -3.876474   -3.023352    0.238530
N     -3.127821   -2.485127   -0.767297
C     -2.926502   -1.224004   -0.444449
S     -2.184830   -0.069674   -1.504310
C     -1.241827   -1.151109   -2.628697
C      0.082954   -1.580863   -2.050785
C      0.217148   -2.787031   -1.346604
C      1.454724   -3.168085   -0.814147
C      2.570615   -2.339437   -0.963406
C      2.447712   -1.130311   -1.650900
C      1.213608   -0.762905   -2.186259
F      1.122342    0.406607   -2.836391
C     -4.433705    0.153086    2.755909
C     -4.486955    1.225250    3.655543
H     -4.406762    4.167539    5.930959
H     -2.059305    3.172901    2.283181
H     -1.931297    1.327803    0.731394
H     -1.837904   -2.020090   -2.931795
H     -1.065161   -0.588853   -3.553353
H     -0.639850   -3.447723   -1.213176
H      1.544591   -4.113524   -0.283285
H      3.528307   -2.620359   -0.534240
H      3.302379   -0.469686   -1.774957
H     -5.123521   -0.675528    2.913988
H     -5.190594    1.185323    4.484791
