42

C     -5.067006   -3.352818   -2.674893
C     -5.792164   -2.251102   -2.248663
C     -5.179671   -1.293617   -1.438363
C     -3.833507   -1.409223   -1.032182
C     -3.101778   -2.515345   -1.487137
C     -3.733771   -3.484840   -2.294726
C     -1.662377   -2.744424   -1.108358
C     -0.787066   -1.530001   -1.387003
C     -0.837174   -0.516994   -0.273195
C      0.390794   -0.044681    0.246033
C      0.454591    0.911740    1.270285
C      1.745754    1.380972    1.797661
C      2.044932    2.745645    1.874107
C      3.275822    3.177984    2.375807
C      4.234119    2.275196    2.811596
N      5.409570    2.730666    3.289276
C      6.294022    1.794898    3.695488
C      6.019447    0.444833    3.629072
N      4.848210   -0.029666    3.153296
C      3.950765    0.889352    2.742572
C      2.721879    0.473352    2.241271
C     -0.753864    1.400139    1.770247
C     -1.973854    0.949165    1.255749
C     -2.041741   -0.004742    0.222468
N     -3.322281   -0.383179   -0.216651
H     -5.533547   -4.107815   -3.301508
H     -6.831550   -2.132937   -2.541595
H     -5.772584   -0.438635   -1.121454
H     -3.180097   -4.357270   -2.636452
H     -1.264808   -3.578734   -1.700888
H     -1.607640   -3.058134   -0.058205
H      0.244479   -1.888154   -1.499881
H     -1.049623   -1.042588   -2.334482
H      1.321566   -0.429843   -0.170086
H      1.326636    3.487994    1.530895
H      3.492985    4.242164    2.424535
H      7.237482    2.165398    4.079044
H      6.736288   -0.298472    3.957951
H      2.521650   -0.596210    2.209113
H     -0.762534    2.130549    2.576332
H     -2.888066    1.355479    1.682958
H     -4.051939    0.219169    0.147020
