42

C      0.070093   -4.037940    1.468370
C      0.298916   -5.521898    1.477683
C     -0.852500   -6.155885    1.220562
C     -1.900528   -5.185597    1.026623
C     -1.407109   -3.940859    1.162033
C     -2.194495   -2.766261    1.027713
C     -3.544954   -2.595345    0.751343
C     -3.813353   -1.205861    0.729927
C     -2.621764   -0.564626    0.993652
O     -1.649863   -1.509450    1.172101
C     -2.347729    0.833560    1.084005
C     -3.167382    1.933167    0.935087
C     -2.370488    3.090058    1.129322
C     -1.074626    2.676096    1.377613
N     -1.087844    1.299620    1.366811
C      0.136405    3.446665    1.664596
C      0.154562    4.207314    2.844137
C      1.285231    4.933019    3.203310
C      2.412051    4.907238    2.385916
C      2.422672    4.166965    1.193778
C      3.567399    4.162041    0.378888
C      3.595789    3.446940   -0.817341
C      2.476196    2.731421   -1.218916
C      1.331244    2.724569   -0.419078
C      1.274655    3.427919    0.809117
H      0.304124   -3.600238    2.443888
H      0.670572   -3.554733    0.691238
H      1.251594   -5.993582    1.664757
H     -0.995448   -7.224436    1.163107
H     -2.919673   -5.465103    0.806315
H     -4.260193   -3.388043    0.583101
H     -4.764823   -0.728635    0.543855
H     -4.225921    1.913954    0.712078
H     -2.703197    4.119267    1.082515
H     -0.284760    0.708149    1.535509
H     -0.716078    4.223870    3.496596
H      1.290344    5.514114    4.121517
H      3.287807    5.479110    2.686013
H      4.451988    4.724414    0.670767
H      4.488488    3.457187   -1.436851
H      2.485668    2.182079   -2.156648
H      0.466078    2.170479   -0.777303
