40

C      2.601855    2.690130    2.931118
C      1.275983    2.731666    3.713382
C      1.515586    3.515782    5.018600
C      0.811658    1.312005    4.070784
C      0.394583    0.486627    2.872639
O      0.497278   -0.739303    2.898332
C     -0.208536    1.199577    1.712590
C     -0.717304    0.460277    0.711526
N     -1.369344    0.884529   -0.427969
C     -1.531266    0.118041   -1.657743
C     -2.476186   -1.069663   -1.476708
C     -2.659601   -1.809435   -2.774477
C     -1.759743   -2.796461   -3.165000
C     -1.950812   -3.433940   -4.387040
C     -3.032585   -3.075811   -5.180651
C     -3.881505   -2.088816   -4.717763
N     -3.717126   -1.447009   -3.541664
C     -0.252773    2.691897    1.670864
O     -0.666138    3.310175    0.688115
C      0.180435    3.443987    2.910106
H      2.520161    2.133207    1.992691
H      3.389017    2.212514    3.524748
H      2.944359    3.700354    2.682751
H      2.244824    3.007968    5.657026
H      1.896335    4.522473    4.810207
H      0.589583    3.619846    5.593936
H     -0.049969    1.343008    4.747696
H      1.615381    0.773706    4.587146
H     -0.644295   -0.625226    0.758676
H     -1.331153    1.903516   -0.560425
H     -1.930272    0.789714   -2.428221
H     -0.545985   -0.211645   -2.010012
H     -3.453052   -0.719902   -1.119205
H     -2.104036   -1.762251   -0.713013
H     -0.918152   -3.064230   -2.533986
H     -1.252472   -4.196286   -4.721746
H     -3.208782   -3.552896   -6.136390
H     -4.741107   -1.771653   -5.299108
H     -0.719242    3.580550    3.520059
H      0.529309    4.435652    2.603419
