32

C      4.450872   -1.841677   -1.489919
O      3.284975   -2.156372   -0.742131
C      2.408126   -1.135893   -0.470709
C      2.566959    0.181185   -0.910783
C      1.614529    1.152037   -0.589083
C      0.483400    0.820224    0.162653
C      0.335443   -0.494689    0.626263
C      1.287484   -1.474082    0.314461
O      1.203933   -2.785432    0.714550
C      0.243353   -3.110349    1.709202
C     -0.498760    1.855697    0.473937
N     -0.220099    3.045118    0.981127
N     -1.394184    3.740130    1.153870
C     -2.374179    2.980909    0.721127
N     -1.863316    1.777490    0.252339
C     -2.663760    0.786510   -0.323366
C     -3.991316    0.981135   -0.407810
C     -4.557687    2.220157    0.103504
C     -3.779819    3.179374    0.642285
H      5.072729   -1.109691   -0.964103
H      5.037312   -2.759350   -1.596887
H      4.192763   -1.493692   -2.495475
H      3.421480    0.489053   -1.503980
H      1.759713    2.175577   -0.932581
H     -0.525724   -0.736456    1.240302
H      0.375863   -2.498375    2.607702
H      0.396603   -4.155881    1.993463
H     -0.773772   -3.019491    1.314652
H     -2.180546   -0.107217   -0.696327
H     -4.653449    0.245078   -0.852279
H     -5.633288    2.354627    0.032328
H     -4.195841    4.107290    1.018280
