36

Si    -4.060655   -3.138861   -0.638124
C     -5.585127   -3.094036    0.452659
C     -5.448397   -2.187221    1.435543
C     -4.186909   -1.458005    1.442168
C     -3.311297   -1.780350    0.463741
C     -2.017120   -1.217986    0.250198
C     -1.070795   -1.507816   -0.736316
C      0.084641   -0.720326   -0.588874
C      1.261780   -0.734219   -1.405390
N      1.361566   -1.556442   -2.447169
S      2.892084   -1.201566   -3.067019
N      3.397845   -0.007004   -1.995789
C      2.383920    0.124090   -1.151365
C      2.382544    1.047664   -0.056419
C      1.256955    1.066806    0.731223
N      1.433029    1.998547    1.715244
C      2.679505    2.593536    1.572932
C      3.290556    3.597126    2.346474
C      4.575418    4.048859    2.008415
C      5.194847    3.456366    0.885618
N      6.420875    3.765898    0.419073
S      6.683756    2.789777   -0.915851
N      5.250745    1.933282   -0.956572
C      4.577387    2.415669    0.072469
C      3.263695    1.988362    0.459063
C      0.054876    0.147245    0.458979
S     -1.391831    0.035294    1.309628
H     -4.343317   -2.666914   -2.016854
H     -3.332892   -4.428314   -0.532287
H     -6.434403   -3.733706    0.271744
H     -6.206508   -1.991069    2.184293
H     -4.020026   -0.713979    2.211425
H     -1.205737   -2.245391   -1.518193
H      0.759723    2.221047    2.436410
H      2.778392    4.027433    3.204284
H      5.078011    4.820285    2.580672
