46

C     -1.232757   -0.580580    1.179095
O     -2.355119   -0.068675    0.467257
C     -3.511013   -0.903553    0.573582
C     -3.528026   -1.986650   -0.506695
C     -3.525241   -1.405682   -1.920174
N     -2.281483   -0.725686   -2.219983
C     -2.009544   -0.268480   -3.486322
O     -2.726080   -0.522276   -4.451969
C     -0.724997    0.516517   -3.653487
C     -0.563325    1.717690   -2.721788
C      0.912919    1.740519   -2.416877
O      1.500135    2.661817   -1.873079
N      1.467097    0.548690   -2.845174
C      2.876403    0.205606   -2.721695
C      3.160048   -1.027356   -1.851865
C      2.801902   -0.955157   -0.383276
C      2.848356    0.237134    0.350461
C      2.582519    0.241875    1.722609
C      2.276439   -0.945640    2.382602
C      2.234239   -2.140606    1.670113
C      2.499045   -2.145565    0.298772
C      0.486759   -0.359522   -3.382656
H     -1.456076   -0.650053    2.247722
H     -0.937009   -1.557538    0.787845
H     -0.405112    0.118109    1.039872
H     -4.385655   -0.255634    0.449443
H     -3.577444   -1.347502    1.573730
H     -4.427008   -2.599499   -0.375390
H     -2.659908   -2.645090   -0.387694
H     -3.661964   -2.207411   -2.654550
H     -4.344356   -0.689965   -2.053059
H     -1.866165   -0.237831   -1.429697
H     -0.684185    0.877626   -4.690266
H     -0.847540    2.643131   -3.232165
H     -1.119808    1.644905   -1.784889
H      3.237296    0.010677   -3.738758
H      3.431325    1.076050   -2.356232
H      4.234452   -1.244674   -1.910297
H      2.644332   -1.887444   -2.298196
H      3.096305    1.183288   -0.126127
H      2.621661    1.178077    2.274304
H      2.078829   -0.938451    3.451034
H      2.007555   -3.071723    2.182682
H      2.481048   -3.093460   -0.235355
H      0.304975   -1.151495   -2.649137
H      0.867560   -0.810645   -4.304801
