46

C      1.062912    4.821271    2.073214
C      2.227840    4.184524    2.775564
C      2.119891    2.851253    2.695833
C      3.007697    1.845143    3.224820
C      2.721469    0.542922    3.035671
C      1.512527    0.150692    2.295531
C      1.134882   -1.170198    2.047690
C      1.763153   -2.332860    2.413236
O      1.046537   -3.408384    1.964022
C     -0.051053   -2.927299    1.305235
C     -0.039480   -1.556375    1.328620
C     -0.969743   -0.670391    0.778019
C     -0.609891    0.681117    1.011941
C      0.569729    1.082652    1.733971
C      0.909549    2.502117    1.955880
C      0.283353    3.631253    1.586556
C     -2.152204   -1.108560    0.041099
C     -3.343630   -1.061947    0.685793
C     -4.571410   -1.475816    0.033991
C     -5.936291   -1.476315    0.652654
C     -6.780196   -1.997926   -0.479484
C     -6.008080   -2.245825   -1.549583
C     -4.634837   -1.924329   -1.238472
C     -3.410441   -1.997369   -2.006060
C     -3.289664   -2.410859   -3.282110
Si    -1.509185   -2.318063   -3.843681
C     -1.052338   -1.670561   -2.150509
C     -2.137340   -1.576806   -1.354781
H      1.398286    5.440705    1.236245
H      0.468037    5.424952    2.764866
H      3.019630    4.732108    3.262760
H      3.894162    2.153470    3.767751
H      3.376875   -0.226370    3.425754
H      2.664271   -2.576963    2.957140
H     -0.713730   -3.676113    0.893813
H     -1.267789    1.452567    0.613045
H     -0.635652    3.706593    1.027253
H     -3.419902   -0.722400    1.715072
H     -6.249931   -0.468279    0.940630
H     -5.987871   -2.144592    1.517631
H     -7.847942   -2.146946   -0.426981
H     -6.341472   -2.626278   -2.502371
H     -4.073037   -2.754206   -3.937812
H     -0.933259   -3.657549   -4.113508
H     -1.306660   -1.309004   -4.911289
H     -0.032273   -1.422308   -1.903704
