39

C     -3.519005   -2.678964   -0.128089
C     -4.852622   -2.364289    0.498595
C     -5.030526   -1.050698    0.680399
C     -3.837040   -0.391102    0.192243
C     -3.537429    0.934921    0.159310
N     -2.368484    1.370093   -0.335101
C     -1.437601    0.500033   -0.822788
C     -0.254109    1.054983   -1.314549
N     -0.101091    2.403294   -1.279571
C      1.025896    2.984943   -1.743787
C      2.088632    2.291284   -2.277435
C      1.932331    0.901943   -2.314083
C      0.763625    0.232200   -1.837814
C      0.593889   -1.189108   -1.870854
C      1.596619   -2.057252   -2.390834
C      1.458181   -3.441064   -2.435116
C      0.301660   -4.009113   -1.956540
C     -0.700471   -3.186383   -1.440358
C     -0.605464   -1.767738   -1.373757
C     -1.644334   -0.908581   -0.838165
C     -2.902959   -1.313515   -0.300908
C      3.270862    3.025431   -2.754840
N      3.385612    4.340656   -2.705123
C      4.599722    4.743757   -3.222513
C      5.416615    3.731884   -3.669752
S      4.642404    2.224843   -3.436347
H     -3.678980   -3.172124   -1.091313
H     -2.934329   -3.299429    0.557310
H     -5.573873   -3.123945    0.765700
H     -5.887126   -0.553416    1.105720
H     -4.212743    1.699807    0.523416
H      1.035158    4.069911   -1.664210
H      2.746586    0.317885   -2.727003
H      2.532785   -1.671634   -2.783940
H      2.252293   -4.061072   -2.841689
H      0.167088   -5.087312   -1.978981
H     -1.574223   -3.713988   -1.086384
H      4.839701    5.799867   -3.249383
H      6.400946    3.805267   -4.108803
