31

O      4.226351    3.501955   -0.413427
C      3.764525    2.897214    0.544933
C      4.306770    3.120628    1.899366
C      3.823932    2.476059    2.964105
C      2.720138    1.502831    2.848812
O      2.298088    0.926947    3.842900
C      2.155447    1.256740    1.506727
C      1.103632    0.337128    1.357135
C      0.534865    0.071075    0.098077
C     -0.576249   -0.906657   -0.027881
C     -1.193758   -1.657575    0.959848
C     -2.245005   -2.512726    0.484408
C     -3.088760   -3.410748    1.181539
C     -4.056776   -4.149234    0.494305
C     -4.199571   -4.008602   -0.879007
C     -3.380292   -3.129706   -1.591237
C     -2.406971   -2.388579   -0.893028
S     -1.296212   -1.257828   -1.548606
C      1.064912    0.765865   -1.005461
C      2.113819    1.683921   -0.861365
C      2.659853    1.929253    0.398790
H      5.117245    3.835914    1.980595
H      4.219918    2.637832    3.960181
H      0.737585   -0.168085    2.248610
H     -0.919294   -1.615274    2.006224
H     -2.985764   -3.528920    2.257374
H     -4.699172   -4.835930    1.040246
H     -4.954618   -4.586154   -1.407271
H     -3.493514   -3.020957   -2.666081
H      0.675699    0.611846   -2.009974
H      2.497397    2.202219   -1.739052
