34

C     -5.508714   -3.286029    1.759988
C     -5.316899   -1.912940    1.776198
C     -4.066461   -1.488389    1.332029
N     -3.541751   -0.223092    1.215761
C     -2.257439   -0.272727    0.728223
C     -1.354466    0.752365    0.453797
C     -0.121291    0.340620   -0.037817
C      0.918048    1.313083   -0.367032
N      0.853388    2.633478   -0.257467
C      2.069936    3.088146   -0.686917
N      2.487542    4.375480   -0.761374
C      3.750948    4.527639   -1.228013
N      4.440049    5.696151   -1.412514
C      5.614364    5.322174   -1.879481
N      5.713419    3.960685   -2.004654
C      4.528768    3.431724   -1.592029
N      4.153989    2.137257   -1.534181
C      2.892968    2.032590   -1.065381
N      2.146724    0.918027   -0.855842
N      0.228642   -0.954682   -0.253305
C     -0.671963   -1.932123    0.023306
C     -1.941956   -1.615145    0.522689
C     -3.086019   -2.384312    0.904506
C     -3.381672   -3.753525    0.927672
N     -4.591264   -4.191701    1.355600
H     -6.453378   -3.712597    2.088686
H     -6.087196   -1.230471    2.110672
H     -4.031906    0.627559    1.455437
H     -1.588525    1.799253    0.609601
H      6.427662    5.986043   -2.143365
H      6.507845    3.435895   -2.338079
H      2.417022   -0.040580   -1.019610
H     -0.350040   -2.950561   -0.163820
H     -2.680016   -4.517747    0.613749
