35

C      1.636933    4.480196   -1.744827
C      1.175320    3.433368   -0.774239
C      0.803243    3.781947    0.522285
C      0.347421    2.803479    1.402756
C      0.246729    1.458302    1.003479
C     -0.248586    0.460082    2.012341
C      0.603093    1.094577   -0.312791
N      0.480211   -0.259423   -0.713484
C      0.881887   -0.831698   -1.910134
O      1.417750   -0.252450   -2.853132
C      0.575947   -2.317721   -2.010833
S      1.667872   -3.280490   -0.915498
C      0.611222   -3.525562    0.496758
C      0.935833   -4.523047    1.409163
C      0.097690   -4.734508    2.500637
C     -1.038274   -3.949910    2.645782
C     -1.280811   -2.973023    1.695735
N     -0.472789   -2.726613    0.637250
C      1.058526    2.095242   -1.183385
H      2.092938    5.327150   -1.221373
H      0.789143    4.844892   -2.332869
H      2.393488    4.074234   -2.424569
H      0.866853    4.814727    0.856202
H      0.069288    3.099891    2.411991
H     -1.208062    0.047408    1.687741
H     -0.404880    0.919080    2.994593
H      0.483076   -0.342545    2.146795
H      0.109026   -0.916093   -0.028511
H     -0.488999   -2.504147   -1.843779
H      0.788316   -2.632223   -3.038769
H      1.821047   -5.137021    1.275136
H      0.327302   -5.511457    3.224721
H     -1.718188   -4.096801    3.477935
H     -2.160937   -2.338905    1.765717
H      1.329256    1.863146   -2.208701
