44

Si    -0.101624    4.028605   -4.666068
C      1.631471    4.463740   -4.111479
C      1.943257    3.828517   -2.965625
C      3.224381    3.961290   -2.279002
C      3.454586    3.288252   -1.134080
C      2.414329    2.452976   -0.625124
O      2.483352    1.705088    0.518605
C      1.296745    1.053138    0.658651
C      0.986694    0.190841    1.708065
C     -0.287432   -0.399082    1.696101
C     -0.638192   -1.329012    2.794808
C     -1.830929   -1.962982    2.894944
C     -2.009578   -2.892455    4.043497
N     -1.476050   -2.535419    5.219193
C     -1.654039   -3.415054    6.200469
N     -2.285965   -4.580892    6.103096
C     -2.762313   -4.832434    4.887277
N     -2.660622   -4.039263    3.824911
C     -2.836003   -1.691588    1.856640
C     -4.090964   -2.189354    1.822913
Si    -5.043953   -1.598892    0.337301
C     -3.539683   -0.610021   -0.155429
C     -2.529763   -0.774494    0.725556
C     -1.204435   -0.116841    0.655600
C     -0.843578    0.762312   -0.385924
C      0.432548    1.360125   -0.385738
C      1.158417    2.259752   -1.205646
C      0.863207    2.951757   -2.423257
C     -0.262387    2.926619   -3.161018
H     -1.020849    5.190405   -4.613862
H     -0.113735    3.257703   -5.932175
H      2.251417    5.140617   -4.677409
H      3.984116    4.608015   -2.704459
H      4.392173    3.361807   -0.596971
H      1.712203   -0.003429    2.489020
H      0.139637   -1.499424    3.536018
H     -1.243253   -3.157752    7.170860
H     -3.283460   -5.773564    4.748526
H     -4.552744   -2.858457    2.530844
H     -5.343783   -2.685786   -0.625673
H     -6.191831   -0.732801    0.699130
H     -3.562929    0.001218   -1.041602
H     -1.535107    0.985903   -1.187910
H     -1.167451    2.375327   -2.975780
