36

N     -0.044614    3.431917   -4.311234
C     -0.953385    3.544017   -3.397431
C     -1.026487    2.529213   -2.301225
C      0.091985    1.719266   -2.051906
C      0.002297    0.783859   -1.013369
C     -1.140779    0.630899   -0.235012
C     -2.260038    1.440846   -0.505186
C     -2.192444    2.383381   -1.541710
C     -0.863913   -0.394825    0.709465
C      0.423295   -0.859928    0.495476
C      1.190784   -1.894207    1.190610
C      2.095856   -2.712668    0.499659
C      2.825343   -3.698066    1.173587
C      2.650824   -3.880155    2.548065
C      3.436507   -4.925521    3.255601
N      4.714173   -5.201142    2.870337
N      2.963492   -5.603290    4.252197
C      1.752270   -3.071896    3.248243
C      1.026301   -2.087089    2.569762
N      0.928301   -0.123569   -0.554574
N     -1.824215    4.596252   -3.433928
H     -0.151933    4.178072   -4.999693
H      0.994926    1.818446   -2.646998
H     -3.171076    1.331124    0.075814
H     -3.075018    2.978175   -1.757826
H     -1.547694   -0.764922    1.462310
H      2.226428   -2.614246   -0.575302
H      3.505745   -4.337121    0.615825
H      5.269207   -4.403070    2.585438
H      5.183586   -5.768772    3.570103
H      1.985413   -5.360794    4.433909
H      1.624848   -3.179513    4.321954
H      0.340248   -1.459026    3.134197
H      1.860338   -0.218718   -0.931084
H     -1.527933    5.386784   -3.992594
H     -2.183075    4.897382   -2.533945
