30

O      2.039445    0.484343    2.390045
C      2.241582   -0.680808    2.080266
O      3.489717   -1.192293    2.176018
C      1.218469   -1.722385    1.644489
N     -0.032446   -1.114153    1.198857
C     -0.993148   -0.641047    2.181793
C     -1.472782    0.686184    1.596680
C     -1.295072    0.542000    0.086339
C     -0.103358   -0.392373    0.025157
N      0.730262   -0.519025   -0.959207
C      0.552044    0.261928   -2.106614
C      1.236122    1.472234   -2.244986
C      1.076714    2.247270   -3.395340
C      0.239910    1.806967   -4.420384
C     -0.431209    0.590593   -4.298095
C     -0.269537   -0.181525   -3.146019
H      4.035650   -0.420943    2.436181
H      1.646742   -2.319182    0.831551
H      1.028230   -2.390011    2.491801
H     -1.820642   -1.354988    2.252402
H     -0.562109   -0.504025    3.178806
H     -0.832300    1.498925    1.962110
H     -2.503030    0.920835    1.879280
H     -2.157065    0.051030   -0.376020
H     -1.113623    1.508590   -0.386772
H      1.893990    1.808126   -1.448319
H      1.609228    3.189369   -3.491903
H      0.117702    2.407481   -5.318042
H     -1.074309    0.239138   -5.100196
H     -0.780708   -1.135506   -3.053807
