47

Si     3.223523   -2.484667    1.916438
C      2.578930   -0.945614    1.084766
C      1.239395   -0.991087    0.914144
C      0.422617    0.072608    0.307500
C      0.971376    1.313439   -0.066752
C      0.165138    2.328364   -0.577376
C     -1.183466    2.042648   -0.687955
N     -1.744561    0.858593   -0.343498
C     -0.959403   -0.140551    0.133562
C     -1.646057   -1.434394    0.522484
C     -3.042168   -1.723202    0.234837
C     -3.922797   -0.946893   -0.572227
C     -5.268731   -1.272832   -0.793455
C     -5.810640   -2.409676   -0.223490
C     -4.999948   -3.226325    0.552300
C     -3.639412   -2.901574    0.771283
C     -2.876728   -3.805498    1.546558
C     -3.135026   -5.035974    2.226684
C     -1.947318   -5.434770    2.781683
O     -0.975389   -4.541784    2.490057
C     -1.526728   -3.539315    1.737059
C     -0.866454   -2.408064    1.232815
C      0.594621   -2.225341    1.406129
C      1.468325   -3.103692    1.946121
C      0.710273    3.619459   -0.964371
S      0.494995    4.272893   -2.546744
C      1.396967    5.696196   -2.188972
C      1.808861    5.615175   -0.904437
C      2.564019    6.477414   -0.074398
C      2.733638    5.961643    1.215533
S      1.996053    4.397085    1.534155
C      1.446077    4.474674   -0.186762
H      3.763251   -2.209013    3.269561
H      4.100664   -3.279635    1.023639
H      3.266899   -0.162641    0.813549
H      2.035388    1.498908    0.045662
H     -1.890424    2.779413   -1.061197
H     -3.575077   -0.056137   -1.084543
H     -5.881197   -0.628464   -1.419039
H     -6.852617   -2.666089   -0.390468
H     -5.439689   -4.124055    0.978919
H     -4.072998   -5.566595    2.299635
H     -1.643296   -6.283572    3.377888
H      1.273554   -4.080087    2.355148
H      1.552603    6.470284   -2.927144
H      2.973285    7.433971   -0.375952
H      3.267405    6.427252    2.033075
