27

C      3.275900    2.103547    3.196567
O      1.935075    2.538597    3.007872
C      1.146394    1.773465    2.194545
C      1.518634    0.583472    1.571607
C      0.605620   -0.103844    0.761382
C     -0.143767    2.269070    1.998102
C     -1.056431    1.586436    1.188384
C     -0.691593    0.387085    0.562598
C     -1.651581   -0.347857   -0.283548
C     -2.837411   -0.717848    0.236840
C     -3.744524   -1.466490   -0.672230
N     -3.503836   -1.796942   -1.901607
C     -2.290189   -1.410544   -2.394716
N     -1.784769   -1.608539   -3.592577
C     -0.564513   -1.016395   -3.524376
N     -0.250465   -0.456282   -2.358321
N     -1.362693   -0.698076   -1.613842
H      3.821159    2.079045    2.247211
H      3.307476    1.130004    3.696772
H      3.773885    2.828399    3.847746
H      2.510996    0.161051    1.689358
H      0.926329   -1.027225    0.281883
H     -0.438857    3.200839    2.475124
H     -2.046959    2.012266    1.046148
H     -3.162487   -0.521898    1.249858
H     -4.711434   -1.756448   -0.227104
H      0.125574   -0.993343   -4.358499
