47

C     -2.468983   -3.642521   -0.853473
C     -2.371739   -3.297226   -2.306617
C     -1.531272   -2.260928   -2.466467
C     -0.984775   -1.704741   -3.707509
C     -1.488570   -2.044897   -4.966958
C     -0.888828   -1.498601   -6.084586
N      0.154351   -0.651300   -6.028106
C      0.617731   -0.331593   -4.793523
C      0.110435   -0.817883   -3.585426
C      0.625878   -0.398395   -2.243990
C      1.782826    0.358543   -2.086127
N      2.264378    0.838803   -0.914316
C      1.547593    0.668703    0.196806
C      2.088065    1.276436    1.363583
C      1.494191    1.314641    2.650416
C      2.069657    1.972913    3.802328
C      2.367840    3.341939    3.855992
N      2.918705    4.050441    4.897267
C      3.254364    3.424095    6.061419
C      3.023120    2.038369    6.160025
N      3.291492    1.257834    7.219568
S      2.841549   -0.280959    6.791305
N      2.277358   -0.022598    5.255033
C      2.416421    1.291596    4.998103
C      0.238320    0.714017    2.600013
C     -0.698076    0.693575    3.605775
N     -1.829828    0.105337    3.094713
C     -1.632689   -0.220037    1.771069
C     -0.326794    0.070842    1.449665
C      0.317468   -0.063427    0.176674
C     -0.055220   -0.723440   -1.043057
C     -1.058583   -1.804099   -1.162842
C     -1.533283   -2.651123   -0.232347
H     -3.488826   -3.518195   -0.478561
H     -2.130270   -4.666802   -0.671994
H     -2.844292   -3.875233   -3.085120
H     -2.327693   -2.719464   -5.087112
H     -1.243020   -1.734927   -7.083858
H      1.439769    0.376661   -4.832058
H      2.419160    0.618240   -2.927323
H      3.057344    1.766485    1.240071
H      2.147216    3.968676    2.989930
H      3.685599    4.022389    6.852747
H     -0.685563    1.061455    4.622934
H     -2.698769   -0.016892    3.599035
H     -2.459419   -0.606814    1.192714
H     -1.269066   -2.673526    0.813370
