31

C     -1.443908    1.721102    2.311221
C     -0.438587    0.651863    2.524572
N     -0.099140    0.287951    3.768604
N      0.814750   -0.681332    3.581717
C      1.416598   -1.320502    4.726044
C      1.067003   -0.946906    2.269611
C      0.268116   -0.097602    1.544354
N      0.165139    0.017183    0.173639
C      0.846843   -0.733919   -0.762824
O      1.635160   -1.643284   -0.536391
C      0.491362   -0.341153   -2.135137
N     -0.515594    0.532460   -2.380383
N     -0.589615    0.580539   -3.726444
C     -1.589486    1.414007   -4.353062
C      0.333564   -0.198281   -4.354246
C      1.063866   -0.790347   -3.344703
N      2.172045   -1.665172   -3.525554
O      3.235793   -1.333397   -2.992051
O      1.988723   -2.640131   -4.264884
H     -2.296729    1.334160    1.744378
H     -1.003535    2.550986    1.749352
H     -1.820500    2.117423    3.259892
H      1.932481   -0.558039    5.314971
H      2.129538   -2.076720    4.388431
H      0.624651   -1.790740    5.314275
H      1.780956   -1.702326    1.971880
H     -0.482414    0.702173   -0.205869
H     -1.503969    1.329799   -5.439171
H     -2.574855    1.071618   -4.027448
H     -1.418051    2.447755   -4.042937
H      0.408125   -0.262471   -5.431619
