34

C      3.010483    5.300755    0.661818
C      1.717844    5.767660    0.431565
C      0.671392    4.883958    0.149160
C      0.973508    3.517674    0.107297
N      0.162689    2.433595   -0.141905
C      0.871338    1.252503   -0.086080
C      0.294595   -0.077295   -0.305855
C     -1.051577   -0.282599   -0.598267
C     -1.434670   -1.614041   -0.778356
N     -2.662028   -2.160240   -1.072270
C     -2.578448   -3.529647   -1.159275
C     -3.557904   -4.481972   -1.433128
C     -3.111651   -5.794779   -1.441259
N     -1.838368   -6.181588   -1.208880
C     -0.903140   -5.235669   -0.944618
C     -1.250654   -3.878949   -0.912842
C     -0.529308   -2.668066   -0.672392
C      0.803330   -2.366491   -0.375428
N      1.196423   -1.081564   -0.196848
C      2.178552    1.611289    0.210008
C      2.254556    3.023561    0.333106
C      3.293147    3.930663    0.615689
H      3.809369    6.005172    0.879692
H      1.519177    6.836235    0.472038
H     -0.333382    5.251596   -0.029466
H     -0.822595    2.512459   -0.338486
H     -1.766556    0.522467   -0.684002
H     -3.510895   -1.629706   -1.206434
H     -4.591600   -4.227313   -1.626285
H     -3.802845   -6.608983   -1.645331
H      0.103928   -5.594332   -0.764826
H      1.575176   -3.120819   -0.274098
H      2.997158    0.911656    0.325100
H      4.302158    3.572277    0.795882
