37

C     -0.563873    2.798327   -1.396948
C     -0.567794    2.308866   -0.043484
C     -0.089814    3.026366    1.023790
C      0.417082    4.294582    0.729087
C      0.431334    4.797449   -0.593954
C     -0.061072    4.050236   -1.673033
C     -1.192749    0.903844   -0.142527
N     -1.569003   -0.204796    0.497706
C     -1.432171   -0.452520    1.923776
C     -0.292803   -1.411327    2.140931
C      1.036490   -0.999628    1.954110
C      2.088813   -1.897056    2.141913
C      1.826162   -3.212503    2.516925
C      0.512084   -3.633773    2.705963
C     -0.543269   -2.739738    2.518744
C     -2.099877   -1.105490   -0.478834
C     -2.024008   -0.485420   -1.701244
N     -1.475580    0.709916   -1.414637
C     -1.153958    1.740314   -2.253328
C     -1.430194    1.543576   -3.555346
C     -2.043512    0.278207   -4.030790
C     -2.352442   -0.739498   -3.189210
H     -0.095866    2.651552    2.039654
H      0.812570    4.917734    1.531857
H      0.837278    5.793456   -0.774693
H     -0.039539    4.455581   -2.679693
H     -2.378986   -0.857551    2.298304
H     -1.248063    0.487797    2.452812
H      1.271642    0.021580    1.664858
H      3.117593   -1.572410    2.000183
H      2.647666   -3.909920    2.667192
H      0.312641   -4.660894    3.004891
H     -1.559496   -3.095114    2.678800
H     -2.447658   -2.068702   -0.148840
H     -1.208710    2.302401   -4.299243
H     -2.236648    0.193424   -5.097697
H     -2.796768   -1.670157   -3.518759
