35

Si    -0.834633   -2.297734    0.394474
C     -0.263443   -2.728962   -1.382917
C      0.294870   -1.657544   -1.993733
C      0.333471   -0.435369   -1.169796
C      0.854319    0.790092   -1.569301
C      0.832015    1.885033   -0.686747
C      0.278542    1.730564    0.603509
C     -0.238701    0.480286    0.975194
O     -0.735243    0.501094    2.252965
C     -0.548489    1.768508    2.734139
C     -0.910947    2.246059    4.015470
C     -0.650019    3.591860    4.367117
C     -0.034969    4.302190    3.339571
C      0.344039    5.622340    3.371737
O      0.920841    5.978215    2.174127
C      0.912186    4.869637    1.360191
C      0.336815    3.858615    2.060195
C      0.061949    2.507874    1.740225
C     -0.220607   -0.600889    0.113715
C     -0.401474   -4.008220   -1.997335
C     -0.024515   -4.428002   -3.270950
N     -0.281482   -5.742759   -3.610273
C     -0.858297   -6.337722   -2.594697
S     -1.119186   -5.376787   -1.207538
H     -0.059827   -3.059787    1.408914
H     -2.312796   -2.391130    0.522689
H      0.695469   -1.639552   -2.998570
H      1.281114    0.912756   -2.561608
H      1.240250    2.839836   -1.004231
H     -1.388638    1.575473    4.723833
H     -0.909341    4.001229    5.334822
H      0.289224    6.412816    4.107079
H      1.338418    5.002809    0.377280
H      0.454200   -3.798824   -4.011666
H     -1.154261   -7.378059   -2.628056
