23

C     -0.336278   -0.228292    0.277451
N      0.878079   -0.307934    0.916800
C     -1.362694   -0.850907    0.878935
C     -1.069795   -1.548681    2.156219
C      0.167761   -1.579426    2.724318
C      1.237742   -0.911954    2.066803
C      2.588955   -0.609161    2.130438
N      3.005651    0.165765    1.022048
C      1.910387    0.315267    0.316824
C      1.357000    0.903058   -0.887328
C     -0.051529    0.573938   -0.931334
C     -0.847054    1.001590   -1.971669
C     -0.234866    1.762673   -2.975393
C      1.142062    2.081845   -2.928148
C      1.956066    1.651149   -1.875112
H     -2.368731   -0.863314    0.478904
H     -1.904650   -2.050722    2.638237
H      0.346519   -2.099448    3.659740
H      3.301476   -0.891135    2.894974
H     -1.903261    0.762723   -2.017786
H     -0.830810    2.118910   -3.814095
H      1.577163    2.676078   -3.729877
H      3.012227    1.894526   -1.836496
