36

C      0.118574   -1.952603    2.465758
C     -1.067781   -1.926693    1.511214
C     -0.656359   -1.913978    0.037747
C      0.009910   -0.636748   -0.366226
N      1.321197   -0.454946   -0.384491
C      1.512322    0.841942   -0.783077
C      2.745919    1.582696   -0.962786
O      3.858858    1.099215   -0.765532
N      2.541806    2.914092   -1.384205
C      3.738454    3.705828   -1.579545
C      1.298527    3.517690   -1.608980
O      1.154751    4.687485   -1.965382
N      0.171613    2.745102   -1.415929
C      0.310864    1.448029   -1.016152
N     -0.652206    0.510539   -0.772999
C     -2.083771    0.710337   -0.883920
C     -2.595552    0.744814   -2.325202
C     -2.485074   -0.595899   -3.035636
H      0.771336   -2.806415    2.258143
H      0.712782   -1.036797    2.392236
H     -0.232944   -2.039056    3.498921
H     -1.697582   -1.060440    1.744778
H     -1.675766   -2.820881    1.693915
H     -1.537957   -2.091581   -0.587138
H      0.026340   -2.749523   -0.160729
H      4.387770    3.200726   -2.302228
H      3.521338    4.713485   -1.942119
H      4.273851    3.777629   -0.627099
H     -0.723391    3.184904   -1.581969
H     -2.306023    1.664588   -0.391131
H     -2.599754   -0.064123   -0.309338
H     -3.650096    1.044821   -2.312329
H     -2.057759    1.502345   -2.906580
H     -3.033202   -1.373098   -2.494047
H     -2.909802   -0.523732   -4.042026
H     -1.442214   -0.911367   -3.135675
