43

C     -0.646208   -5.558891   -4.400472
C     -0.646657   -4.497421   -3.470792
C      0.708184   -4.103259   -3.260497
C      1.481205   -3.223977   -2.567397
S      3.139845   -3.571398   -3.036827
C      2.716293   -4.850649   -4.115018
C      1.377431   -4.977061   -4.092410
N      0.643855   -5.877668   -4.808115
C      1.165437   -2.154437   -1.599250
C      2.138935   -1.357851   -0.998509
N      1.937310   -0.360118   -0.104631
C      0.643463   -0.115711    0.238240
C     -0.405758   -0.851290   -0.301528
C     -0.153532   -1.880792   -1.228299
S     -1.922360   -0.332849    0.303501
C     -1.243248    0.898494    1.314299
C      0.137652    0.857182    1.140649
C      0.927141    1.804618    1.891811
C      2.289325    1.911878    1.850139
S      2.800969    3.169641    2.900750
C      1.180962    3.522874    3.371394
C      0.251266    2.709606    2.751696
C     -1.143925    2.812194    2.980435
C     -1.777459    3.772148    3.884235
C     -3.165678    3.865253    4.103991
C     -3.834346    2.921460    3.343988
C     -5.190678    2.741657    3.321535
O     -5.496402    1.727487    2.463776
C     -4.320855    1.262799    1.939767
C     -3.253213    1.964475    2.448002
C     -1.873836    1.831766    2.194451
H     -1.479437   -6.118020   -4.807187
H     -1.540497   -4.087163   -3.022483
H      3.450952   -5.409420   -4.677540
H      0.977834   -6.580228   -5.456672
H      3.194721   -1.493629   -1.222537
H     -0.988738   -2.437691   -1.632872
H      3.020374    1.350712    1.285888
H      1.030346    4.319846    4.084376
H     -1.151029    4.472529    4.435268
H     -3.618679    4.580542    4.775538
H     -6.032414    3.207840    3.813636
H     -4.448594    0.450473    1.241047
