39

C     -4.271891    4.498962    4.292786
C     -3.405671    3.439190    3.675507
C     -3.449084    2.115417    4.166230
C     -2.630910    1.105340    3.634433
C     -1.751748    1.418809    2.608586
C     -1.722218    2.748385    2.150568
C     -2.512737    3.767262    2.651415
C     -0.809561    0.544642    1.906079
C     -0.573213   -0.808040    2.089846
C      0.388867   -1.448709    1.289127
C      1.129065   -0.758609    0.296131
C      2.127132   -1.464776   -0.524874
C      2.099337   -1.386448   -1.928347
C      3.046302   -2.055814   -2.713152
C      3.139113   -2.233262    0.068348
C      4.078777   -2.897166   -0.718009
F      5.036426   -3.612896   -0.110571
C      4.041899   -2.829570   -2.110878
C      5.081863   -3.528423   -2.931182
C      0.887780    0.609775    0.113472
C     -0.065313    1.210744    0.917895
S     -0.532900    2.905932    0.863614
O     -1.226802    3.149968   -0.382204
O      0.571857    3.704088    1.348342
H     -3.761442    4.945157    5.151733
H     -5.225714    4.076618    4.625837
H     -4.501127    5.287699    3.568527
H     -4.131947    1.863881    4.977095
H     -2.696972    0.098623    4.036157
H     -2.435406    4.776258    2.258309
H     -1.116242   -1.382730    2.834338
H      0.554327   -2.516092    1.436984
H      1.326569   -0.804425   -2.428696
H      2.995568   -1.968185   -3.796407
H      3.220311   -2.313926    1.148746
H      6.005751   -2.941978   -2.944241
H      4.743442   -3.667945   -3.963290
H      5.294202   -4.521862   -2.522444
H      1.431425    1.193434   -0.623844
