43

Si    -2.773747   -0.371237   -4.125313
C     -2.744266   -0.578136   -2.276710
C     -1.483596   -0.566698   -1.799245
C     -1.090962   -0.700997   -0.428080
C     -1.927680   -0.872960    0.713941
C     -1.222597   -0.970699    1.902952
S      0.470797   -0.846275    1.574534
C      0.251422   -0.668196   -0.103755
C      1.355772   -0.501438   -1.075465
C      2.704179   -0.474374   -0.696039
C      3.718822   -0.312646   -1.663389
C      5.114898   -0.278494   -1.324581
N      5.652046   -0.389292   -0.095621
S      7.297022   -0.283028   -0.281573
N      7.413244   -0.091458   -1.926319
C      6.157421   -0.103286   -2.398577
C      5.789794    0.030733   -3.755538
C      4.409902   -0.009633   -4.031780
C      3.401200   -0.173630   -3.041497
C      2.046040   -0.202941   -3.404142
C      1.020862   -0.363636   -2.450628
C     -0.422857   -0.395431   -2.831297
C     -0.904357   -0.278589   -4.088734
C     -1.726399   -1.149185    3.255147
S     -0.677294   -1.250753    4.646369
C     -1.964057   -1.443186    5.758788
C     -3.116866   -1.424894    5.059860
C     -4.465517   -1.541283    5.467584
C     -5.354902   -1.467037    4.393539
S     -4.638290   -1.251410    2.808552
C     -3.036716   -1.264701    3.672509
H     -3.259951   -1.581292   -4.829951
H     -3.388859    0.909040   -4.549213
H     -3.657322   -0.688777   -1.714550
H     -3.003126   -0.920358    0.642665
H      2.993227   -0.577108    0.347555
H      6.531672    0.157112   -4.534763
H      4.110746    0.092770   -5.076860
H      1.788325   -0.097736   -4.454985
H     -0.361282   -0.146752   -5.009096
H     -1.790209   -1.553441    6.819831
H     -4.799168   -1.673642    6.489701
H     -6.433652   -1.528964    4.442778
