28

C      3.580487    1.735641   -1.020170
C      3.337156    2.733034   -0.071101
C      2.137669    2.338950    0.568168
N      1.177395    2.591032    1.511646
C      0.238658    1.594254    1.488434
C     -0.956876    1.046798    2.007932
C     -1.184413   -0.140805    1.282793
N     -0.161597   -0.308347    0.354731
C      0.638773    0.745861    0.529967
C      1.767703    1.186032   -0.019083
N      2.590933    0.765089   -0.983700
C     -2.274791   -1.079966    1.422047
S     -3.526412   -0.820418    2.599895
C     -4.380516   -2.246739    2.183401
C     -3.737821   -2.905685    1.178527
S     -4.169107   -4.444471    0.345212
C     -2.711393   -4.167501   -0.585790
C     -1.985676   -3.011262   -0.274287
C     -2.574738   -2.240602    0.773685
H      4.391840    1.637613   -1.729915
H      3.945932    3.606391    0.116576
H      1.164103    3.390038    2.129756
H     -1.573141    1.452257    2.798657
H     -0.023546   -1.047976   -0.315836
H      2.497211   -0.070295   -1.545728
H     -5.296486   -2.542126    2.676004
H     -2.462706   -4.902201   -1.339742
H     -1.076095   -2.771267   -0.804187
