47

Si    -3.065550    2.700099   -1.842204
C     -2.339850    2.839640   -0.133707
C     -1.443810    1.859932    0.112511
C     -0.702026    1.705041    1.372681
C      0.172994    0.679876    1.492120
C      0.404089   -0.267918    0.395104
C      1.304882   -1.335925    0.474290
C      2.115969   -1.696650    1.527112
O      2.855496   -2.810060    1.206764
C      2.520710   -3.176850   -0.072726
C      1.589571   -2.293499   -0.515831
C      0.898953   -2.190969   -1.748462
C      0.942500   -2.957607   -2.914226
C      1.616064   -4.090997   -3.402900
C      1.332927   -4.534853   -4.703191
C      0.401699   -3.871320   -5.505697
C     -0.279403   -2.742545   -5.039759
C      0.018989   -2.321051   -3.745138
O     -0.547448   -1.240760   -3.125846
C     -0.002679   -1.146268   -1.868048
C     -0.278142   -0.188053   -0.859259
C     -1.246074    0.915846   -1.022718
C     -1.998509    1.192674   -2.107854
C     -0.863368    2.548781    2.519249
S      0.323511    3.773158    2.882018
C     -0.521845    4.327123    4.280198
C     -1.659725    3.600060    4.438866
Si    -3.092353    3.566709    5.658580
C     -3.845060    2.129525    4.645274
C     -3.065093    1.810108    3.589015
C     -1.871896    2.595964    3.456657
H     -2.681734    3.831996   -2.719863
H     -4.512069    2.373618   -1.817902
H     -2.638196    3.633863    0.532764
H      0.723828    0.531372    2.415373
H      2.293744   -1.307855    2.520058
H      3.029589   -4.045534   -0.462573
H      2.343150   -4.620865   -2.796411
H      1.848222   -5.410899   -5.092421
H      0.201833   -4.237488   -6.510739
H     -1.004121   -2.216628   -5.649395
H     -2.034113    0.665354   -3.046548
H     -0.128097    5.139561    4.875575
H     -3.961963    4.768157    5.603510
H     -2.716284    3.116633    7.021900
H     -4.778808    1.675511    4.935062
H     -3.311803    1.022270    2.885833
