34

C     -0.456890    2.755436    2.041704
C     -0.253252    1.366059    1.627515
N     -0.340104    0.972259    0.347945
N     -0.087083   -0.370498    0.399638
C     -0.089250   -1.166423   -0.792804
C     -0.365158   -0.479636   -1.997197
C     -0.394116   -1.146312   -3.214270
C     -0.148244   -2.511054   -3.252281
C      0.129608   -3.232225   -2.083016
C      0.168079   -2.582753   -0.814846
C      0.461322   -3.428478    0.294349
C      0.697273   -4.801858    0.163789
C      0.650899   -5.394987   -1.084771
C      0.368688   -4.612673   -2.198792
N      0.156360   -0.853704    1.643217
C      0.051530    0.233260    2.405202
C     -0.359251    3.136452    3.388878
C     -0.556219    4.467690    3.770762
C     -0.852918    5.434338    2.812956
C     -0.953385    5.073114    1.472270
C     -0.756752    3.743381    1.089943
H     -0.562626    0.591692   -2.003179
H     -0.607948   -0.602482   -4.130581
H     -0.175891   -3.014177   -4.217351
H      0.515697   -3.039565    1.305781
H      0.916449   -5.398011    1.045846
H      0.832856   -6.460202   -1.194437
H      0.336497   -5.097288   -3.173065
H      0.200098    0.146874    3.471969
H     -0.129634    2.412477    4.165685
H     -0.477656    4.749371    4.818003
H     -1.005782    6.468520    3.110804
H     -1.184718    5.823588    0.720699
H     -0.840105    3.483309    0.036121
