45

Si     1.701412    2.692518    3.223098
C      0.874111    1.036947    3.396505
C      0.603096    0.484438    2.194033
C     -0.195429   -0.741687    2.004630
C     -0.580636   -1.064762    0.747582
C     -0.110633   -0.279800   -0.352737
S     -0.651973   -0.581918   -1.943680
C      0.426823    0.578789   -2.630147
C      0.595241    0.948598   -3.983647
Si    -0.380165    0.358552   -5.452040
C      0.710107    1.453536   -6.546739
C      1.648443    2.128036   -5.855338
C      1.592687    1.850912   -4.420378
C      2.432718    2.292399   -3.408253
C      3.532326    3.092629   -3.630949
S      4.442588    3.355788   -2.192213
C      3.369958    2.390231   -1.254509
C      2.322337    1.970321   -2.023581
C      1.202667    1.132852   -1.604763
C      0.776632    0.792350   -0.292560
C      1.071136    1.296545    1.025429
C      1.568239    2.500318    1.372467
C     -0.651611   -1.600509    3.050851
S      0.468460   -2.574569    3.983559
C     -0.776623   -3.289606    4.960885
C     -1.958549   -2.785394    4.556710
N     -3.192170   -3.082089    5.057563
C     -4.006723   -2.275384    4.264186
C     -3.252300   -1.533102    3.329800
C     -1.889432   -1.876373    3.526671
H      0.867313    3.805478    3.735618
H      3.109693    2.680477    3.685811
H      0.594394    0.658757    4.367378
H     -1.197971   -1.937320    0.550403
H     -0.179695   -1.077958   -5.767482
H     -1.788310    0.827964   -5.462986
H      0.548354    1.489040   -7.613122
H      2.368212    2.801135   -6.298140
H      3.887262    3.521003   -4.557555
H      3.610367    2.187267   -0.223142
H      1.842246    3.316360    0.725565
H     -0.562088   -4.008870    5.738304
H     -3.425391   -3.721941    5.806934
H     -5.076724   -2.289965    4.428302
H     -3.658464   -0.835877    2.608691
