39

C     -2.293713   -4.486037   -5.034187
C     -3.621258   -4.819414   -4.745442
C     -3.985235   -4.481066   -3.422194
C     -5.128925   -4.630098   -2.719913
S     -4.866301   -3.996772   -1.142116
C     -3.231994   -3.542406   -1.483487
C     -2.396983   -2.901437   -0.507343
C     -2.211881   -3.283801    0.806858
C     -1.340329   -2.402616    1.513683
C     -0.873563   -1.363174    0.728363
S     -1.527236   -1.469896   -0.856269
C      0.016401   -0.298786    1.144447
C      0.236038    0.134719    2.441825
C      1.181976    1.199698    2.520894
C      1.663365    1.556054    1.279638
S      0.982161    0.597999    0.040218
C      2.630950    2.579617    0.941242
C      4.029810    2.365569    0.936679
C      4.985468    3.380831    0.610074
C      4.642822    4.709374    0.270163
C      3.261991    4.916671    0.291916
C      2.692855    6.131736    0.002921
S      0.979475    6.058390    0.114814
C      1.002495    4.393913    0.550645
C      2.286861    3.901589    0.612397
C     -2.901977   -3.892586   -2.767336
S     -1.373487   -3.751214   -3.729409
H     -1.777517   -4.637610   -5.973565
H     -4.273975   -5.285106   -5.474130
H     -6.078922   -5.055286   -3.011157
H     -2.675417   -4.159286    1.247576
H     -1.068040   -2.539376    2.553101
H     -0.262615   -0.284428    3.306648
H      1.484770    1.684644    3.441140
H      4.406843    1.372754    1.181716
H      6.042687    3.107605    0.627053
H      5.382395    5.460301    0.026904
H      3.172558    7.062211   -0.268985
H      0.067195    3.876781    0.721906
