43

C      6.114613   -4.086072    1.445591
C      7.020802   -3.802588    0.401333
C      6.505064   -2.688177   -0.303272
C      6.779828   -1.895367   -1.358160
S      5.496659   -0.728327   -1.483670
C      4.644872   -1.348537   -0.101712
C      3.431111   -0.788668    0.413583
C      3.177153   -0.409143    1.718042
C      1.856937    0.101188    1.890233
C      1.142289    0.101507    0.710088
S      2.066589   -0.521096   -0.588079
C     -0.235180    0.547403    0.473075
C     -1.238606   -0.426393    0.494964
C     -2.566692   -0.070125    0.296377
C     -2.941820    1.268114    0.068144
C     -4.372144    1.545951   -0.156738
N     -5.236007    1.057072    0.740716
C     -6.514250    1.303702    0.467025
N     -6.976965    1.957436   -0.595201
C     -6.025749    2.378497   -1.424419
N     -4.716170    2.207473   -1.266304
C     -1.931532    2.280148    0.063043
C     -2.222218    3.657594   -0.113098
C     -1.229951    4.638750   -0.121605
C      0.093100    4.275484    0.050302
C      0.417328    2.933475    0.239645
C     -0.567084    1.913557    0.260488
C      5.345601   -2.400026    0.382657
N      5.035855   -3.203596    1.444515
H      6.152364   -4.864700    2.196840
H      7.929053   -4.353281    0.195095
H      7.605925   -1.906556   -2.053989
H      3.908632   -0.477550    2.514560
H      1.454099    0.460017    2.830145
H     -0.988911   -1.471723    0.664911
H     -3.326544   -0.850835    0.311436
H     -7.248228    0.934674    1.175369
H     -6.347539    2.911532   -2.312688
H     -3.247474    3.995863   -0.248619
H     -1.497911    5.681906   -0.266115
H      0.875816    5.029043    0.039294
H      1.470158    2.689378    0.370354
H      4.220597   -3.154852    2.043533
