38

Si    -0.793515    2.513467    0.193177
C     -2.166906    1.516958    1.018081
C     -1.929969    0.189302    1.004282
C     -0.656810   -0.183623    0.365308
C     -0.183348   -1.482410    0.233064
C      1.050047   -1.719048   -0.402148
C      1.526193   -3.025198   -0.534342
C      2.743975   -3.270972   -1.160537
C      3.508382   -2.212319   -1.666732
C      4.735176   -2.462050   -2.297447
C      5.487612   -1.408993   -2.796725
C      4.984487   -0.134774   -2.647444
N      3.807433    0.142443   -2.045975
C      3.060205   -0.876173   -1.552245
C      1.823252   -0.636212   -0.914823
C      1.319725    0.675015   -0.767313
C      0.098053    0.892995   -0.136170
C     -3.344286    2.097922    1.545465
S     -3.289699    3.391129    2.707088
C     -5.001298    3.493450    2.849806
C     -5.599934    2.571505    2.043414
S     -7.339506    2.201001    1.762645
C     -6.741365    0.984470    0.642560
C     -5.350556    0.890114    0.515497
C     -4.660337    1.818242    1.342068
H     -1.240981    3.176366   -1.059753
H     -0.049045    3.382221    1.141836
H     -2.587743   -0.565271    1.415608
H     -0.770031   -2.310253    0.623035
H      0.953469   -3.866812   -0.150186
H      3.091734   -4.297828   -1.249913
H      5.109725   -3.477306   -2.402283
H      6.438615   -1.578929   -3.287635
H      5.527827    0.729874   -3.017621
H      1.893605    1.518165   -1.150077
H     -5.488066    4.205189    3.501969
H     -7.479903    0.390207    0.121844
H     -4.875574    0.181010   -0.151484
