36

C      1.332567   -4.171360   -4.960664
C      0.115314   -3.632435   -5.298617
C     -0.087339   -2.630004   -4.316983
S     -1.254332   -1.417610   -3.849805
C     -0.257341   -0.911052   -2.495017
C      0.887325   -1.685807   -2.481955
C      1.875745   -1.492360   -1.489928
C      3.067863   -2.106081   -1.256666
N      3.576803   -1.474205   -0.140600
C      2.702572   -0.489201    0.296658
C      1.613533   -0.483822   -0.547876
C      0.476590    0.358989   -0.477518
C      0.196946    1.377810    0.462616
C     -0.992055    2.119241    0.377024
C     -1.842008    1.769307   -0.684798
N     -1.620134    0.798468   -1.615489
C     -0.469141    0.102894   -1.507432
C     -1.359219    3.201295    1.320688
C     -0.566184    3.603527    2.397631
C     -1.001174    4.635401    3.231240
C     -2.217957    5.249754    2.979320
C     -2.952101    4.803816    1.898675
N     -2.551618    3.806990    1.077959
C      0.985858   -2.634598   -3.483928
O      1.885367   -3.586337   -3.863615
H      1.928767   -4.962873   -5.395082
H     -0.527329   -3.912772   -6.119374
H      3.602480   -2.906934   -1.749788
H      4.461812   -1.697743    0.296480
H      2.954580    0.102204    1.166015
H      0.923947    1.565751    1.244165
H     -2.787499    2.291021   -0.830047
H      0.387739    3.137489    2.612895
H     -0.389844    4.953945    4.071039
H     -2.584460    6.053637    3.607177
H     -3.912813    5.246895    1.652015
