36

C      1.708736    4.660625    1.177358
C      3.002957    4.336621    0.501950
C      3.884479    5.343491   -0.021064
C      5.025512    4.817126   -0.578913
S      5.054220    3.116438   -0.479914
C      3.522096    3.063142    0.297425
C      2.948095    1.788378    0.653733
C      3.540049    0.785657    1.393961
C      2.691274   -0.350654    1.547015
C      1.471079   -0.201523    0.911084
C      0.387872   -1.163686    0.885984
C      0.194208   -2.209890    1.771172
C     -0.964406   -2.985578    1.469558
C     -1.637692   -2.516024    0.360451
C     -2.835026   -3.064295   -0.229036
S     -2.889786   -4.731347   -0.644583
C     -4.477525   -4.602792   -1.249021
C     -4.969732   -3.324801   -1.127933
C     -4.029821   -2.418986   -0.527627
C     -4.340180   -0.979027   -0.269289
S     -0.845574   -1.156275   -0.309500
S      1.382328    1.330889    0.139789
H      1.688115    5.706439    1.501902
H      0.870887    4.505089    0.490700
H      1.560621    4.039050    2.066172
H      3.686793    6.408369    0.017355
H      5.845993    5.351565   -1.037466
H      4.536653    0.860563    1.812793
H      2.979176   -1.239967    2.094120
H      0.847502   -2.416428    2.609936
H     -1.287949   -3.844138    2.046175
H     -4.976979   -5.468587   -1.661366
H     -5.965872   -3.045890   -1.451152
H     -3.887206   -0.347065   -1.039485
H     -5.421129   -0.803539   -0.283027
H     -3.970075   -0.665056    0.711899
