44

C     -5.054643   -0.061504   -0.938416
C     -5.387601    0.684334   -2.189519
C     -4.256021    1.133283   -2.747699
C     -4.133337    1.971817   -3.905747
C     -2.912715    2.409615   -4.249864
C     -1.695245    2.016900   -3.505328
N     -0.571622    2.576766   -4.003912
C      0.585663    2.224662   -3.415279
C      0.706690    1.305887   -2.377045
C      1.989476    0.995097   -1.880074
C      2.136000    0.035663   -0.867467
C      3.245590   -0.510038   -0.166445
C      2.767643   -1.448069    0.726927
N      1.405203   -1.502480    0.559861
C      0.996215   -0.594167   -0.390096
C     -0.289502   -0.297460   -0.869215
C     -0.468752    0.698565   -1.865272
C     -1.724080    1.111927   -2.408534
C     -3.089925    0.706349   -1.965636
C     -3.555917    0.048729   -0.887374
C      3.467948   -2.275869    1.660492
S      4.920859   -3.103617    1.211645
C      5.092842   -3.849651    2.759612
C      4.082498   -3.460420    3.595895
C      3.822239   -3.802779    4.960910
C      2.732214   -3.210642    5.496144
Si     1.872532   -2.068551    4.229725
C      3.176815   -2.565354    2.961918
H     -5.371846   -1.106496   -1.000107
H     -5.511597    0.412219   -0.064560
H     -6.390247    0.865043   -2.545396
H     -5.016406    2.263803   -4.461933
H     -2.768324    3.062033   -5.103931
H      1.460725    2.712609   -3.839119
H      2.875790    1.480294   -2.280985
H      4.285208   -0.239071   -0.299042
H      0.789854   -2.136252    1.048970
H     -1.119816   -0.872052   -0.487738
H     -3.001271   -0.340134   -0.052674
H      5.923523   -4.513028    2.954716
H      4.458288   -4.485153    5.513224
H      2.349620   -3.318430    6.498275
H      1.938491   -0.650340    4.658469
H      0.515673   -2.558771    3.873942
