37

C     -4.055247   -1.388164    0.680071
C     -2.718266   -0.683356    0.843186
N     -1.647822   -1.354449    0.134637
C     -1.302037   -1.209935   -1.195060
C     -1.986399   -0.348709   -2.206625
O     -2.192466    0.974963   -1.692113
C     -1.189099    1.821643   -2.093877
C     -1.315345    2.460647   -3.332317
C     -0.312656    3.327731   -3.763653
C      0.800043    3.561276   -2.955171
C      0.909059    2.940274   -1.704849
C     -0.089414    2.069359   -1.259212
O     -0.096331    1.460209   -0.028231
C      1.173020    1.297846    0.594929
N     -0.277999   -2.005909   -1.454596
N      0.061259   -2.666275   -0.303815
C     -0.758264   -2.266528    0.639350
S     -0.742624   -2.833890    2.272068
C      0.981548   -3.422898    2.380880
C      1.948033   -2.320060    2.491534
N      2.698255   -1.439871    2.617957
H     -4.347753   -1.445369   -0.374204
H     -4.839576   -0.848293    1.220787
H     -4.012244   -2.411425    1.071494
H     -2.787509    0.348671    0.492849
H     -2.453668   -0.617410    1.904046
H     -1.417829   -0.343255   -3.146397
H     -2.971919   -0.773432   -2.431467
H     -2.189439    2.284143   -3.955434
H     -0.399911    3.824645   -4.724316
H      1.582384    4.240742   -3.288957
H      1.774909    3.172761   -1.092384
H      1.544192    2.254532    0.978818
H      1.896559    0.836235   -0.083553
H      1.039917    0.627841    1.450609
H      1.214725   -4.073541    1.531890
H      1.051207   -4.049869    3.278540
