29

O     -0.824636    1.317617   -0.824880
C     -0.368152    1.008481    0.269920
C     -0.452472    1.944962    1.405578
C     -1.069015    3.193436    1.256754
C     -1.138865    4.067257    2.343866
C     -0.591356    3.682551    3.565603
O     -0.637383    4.504387    4.652261
C      0.022845    2.443079    3.718871
C      0.090928    1.572176    2.632438
O      0.706519    0.364252    2.833599
C      0.770972   -0.504187    1.770860
C      0.290052   -0.303635    0.533139
C      0.447680   -1.334667   -0.510746
C      0.099932   -2.672949   -0.263369
C      0.258376   -3.645353   -1.254082
C      0.758627   -3.285567   -2.498415
O      0.894034   -4.264889   -3.436609
C      1.103336   -1.967201   -2.771361
C      0.946567   -0.995706   -1.777869
H     -1.493956    3.483544    0.297902
H     -1.619360    5.032975    2.218879
H     -1.092150    5.327369    4.407046
H      0.444580    2.159997    4.678910
H      1.290575   -1.404055    2.079230
H     -0.309929   -2.972929    0.698399
H     -0.014761   -4.678060   -1.056591
H      1.215629   -3.861372   -4.259551
H      1.488428   -1.672878   -3.742406
H      1.212500    0.034983   -2.006460
