50

C     -1.296006    2.304183    0.259670
C     -2.621019    2.902099    0.709610
C     -3.232730    1.986361    1.489822
C     -2.431844    0.795116    1.610216
C     -1.302172    0.942915    0.904399
C     -0.228560   -0.017979    0.751793
C      1.025639    0.344600    1.112657
C      2.183883   -0.540416    1.020092
C      2.105072   -1.805350    0.552179
C      3.332888   -2.595178    0.521575
C      3.910652   -3.253065    1.635573
C      5.119159   -4.033682    1.569445
C      5.872108   -4.238666    0.388739
C      5.283288   -3.586025   -0.686880
C      5.747529   -3.574973   -1.976521
N      4.865119   -2.810730   -2.712397
C      3.850714   -2.338767   -1.905584
C      4.086709   -2.809473   -0.636693
C      0.789674   -2.287356    0.132960
C      0.521176   -3.513389   -0.361064
Si    -1.279313   -3.686803   -0.799555
C     -1.538823   -1.930363   -0.223860
C     -0.389345   -1.383844    0.225367
C     -3.191866    4.176617    0.416341
S     -4.741267    4.718967    0.992625
C     -4.630968    6.243379    0.214833
C     -3.452148    6.287580   -0.439534
C     -2.844293    7.285346   -1.236588
C     -1.594522    6.891394   -1.722420
S     -1.050843    5.288537   -1.258739
C     -2.623242    5.165792   -0.356046
H     -0.456725    2.907338    0.620862
H     -1.256601    2.211446   -0.830903
H     -4.190192    2.073986    1.982336
H     -2.719034   -0.071296    2.187077
H      1.228187    1.331944    1.519834
H      3.132559   -0.123783    1.349923
H      3.412048   -3.170893    2.601893
H      5.472958   -4.497015    2.491117
H      6.777264   -4.826914    0.351907
H      6.609821   -4.028240   -2.445673
H      4.949309   -2.621663   -3.702500
H      3.064097   -1.718246   -2.313665
H      1.220690   -4.319316   -0.518831
H     -1.986001   -4.670687    0.056369
H     -1.500686   -3.841157   -2.258164
H     -2.511285   -1.468293   -0.272976
H     -5.417763    6.980419    0.290148
H     -3.275841    8.253187   -1.461022
H     -0.933463    7.472041   -2.351483
