28

C     -1.692492   -4.951100   -3.101435
C     -3.013284   -5.182093   -2.785722
S     -3.590183   -3.926622   -1.772214
C     -2.044819   -3.179618   -1.833827
N     -1.139809   -3.807823   -2.557897
C     -1.732452   -1.953770   -1.152363
C     -2.532477   -1.130678   -0.339454
C     -1.691142   -0.061153    0.054884
N     -1.529037    1.111567    0.754867
C     -0.245247    1.568107    0.597776
C      0.754810    2.512529    0.855526
N      0.703627    3.636131    1.598912
C      1.885102    4.302911    1.613555
C      3.054461    3.916100    0.952307
C      3.073222    2.743859    0.188974
C      1.875167    2.041644    0.157283
O      1.626032    0.862589   -0.516199
C      0.342544    0.658574   -0.196234
C     -0.501207   -0.307557   -0.522987
N     -0.452773   -1.417986   -1.256861
H     -1.080585   -5.588347   -3.728159
H     -3.646836   -6.001614   -3.091806
H     -3.569546   -1.289618   -0.077144
H     -2.241947    1.573296    1.303874
H      1.875666    5.215804    2.206208
H      3.948043    4.528032    1.032868
H      3.952122    2.401825   -0.341194
H      0.336134   -1.787529   -1.773104
