44

C      4.523470    0.009120   -7.210421
C      4.884062    0.734534   -5.913784
C      3.871135    0.676844   -5.019376
C      2.783831   -0.049859   -5.576832
C      3.143809   -0.453548   -6.887920
C      2.149885   -1.147893   -7.517749
S      0.774546   -1.291509   -6.486929
C      1.526956   -0.423865   -5.179418
C      0.831947   -0.206168   -3.934380
C     -0.515340    0.040431   -3.757531
C     -0.871294    0.197453   -2.384865
C      0.206555    0.061167   -1.528506
S      1.638817   -0.258401   -2.425408
C      0.269215    0.145177   -0.070523
N      1.459894    0.486520    0.516577
C      1.579293    0.586673    1.877602
C      0.593303    0.370374    2.846305
C      0.807709    0.500498    4.274706
C      0.110973    1.426782    5.098001
C      0.329516    1.589401    6.504683
C      1.267417    0.843237    7.245583
C      1.945922   -0.074559    6.445422
C      2.898484   -0.921870    6.954972
S      3.536814   -1.946565    5.733967
C      2.529639   -1.255047    4.522376
C      1.735713   -0.248801    5.025799
C     -0.662432    0.026070    2.281671
N     -1.797283   -0.229928    2.958716
S     -2.960002   -0.599642    1.842630
N     -2.098395   -0.439480    0.439451
C     -0.841757   -0.094708    0.780915
H      4.533280    0.699487   -8.058353
H      5.202578   -0.828903   -7.389843
H      5.830175    1.228282   -5.749532
H      3.881761    1.119783   -4.033437
H      2.139908   -1.573679   -8.511178
H     -1.223618    0.115678   -4.574128
H     -1.881883    0.406073   -2.054328
H      2.583183    0.878030    2.192181
H     -0.646298    2.065315    4.638175
H     -0.269137    2.334560    7.030207
H      1.416101    0.978850    8.308642
H      3.256351   -1.008091    7.971786
H      2.589828   -1.644291    3.515641
