41

Si    -3.646410   -2.031415    0.214276
C     -4.158068   -1.901604    2.054012
C     -3.395317   -1.005943    2.717041
C     -2.388086   -0.356074    1.927026
C     -2.312134   -0.738086    0.557162
C     -1.338719   -0.124475   -0.181796
S     -0.483272    0.961081    0.861220
C     -1.439978    0.584476    2.254979
C     -1.192461    1.228200    3.509885
S      0.370974    1.368878    4.256477
C     -0.243293    2.216766    5.647509
C     -1.575433    2.355126    5.484378
C     -2.690599    2.901136    6.137773
C     -3.771676    2.634734    5.287940
O     -3.432322    1.954013    4.133244
C     -2.089380    1.819715    4.327405
C     -1.023071   -0.307546   -1.581179
N     -1.681795   -1.171652   -2.327065
C     -1.190155   -1.152972   -3.619102
C     -0.144458   -0.281179   -3.866839
S      0.212441    0.554643   -2.409626
C      0.542884   -0.054442   -5.109145
S     -0.171846   -0.414534   -6.661506
C      1.212185    0.119661   -7.559868
C      2.136973    0.528303   -6.670236
C      3.449103    1.055252   -6.623163
C      3.772305    1.231653   -5.262111
N      2.725181    0.841108   -4.430958
C      1.785340    0.438275   -5.340176
H     -3.133294   -3.397528   -0.060406
H     -4.762279   -1.564796   -0.646954
H     -4.966260   -2.497515    2.445810
H     -3.531593   -0.788624    3.770355
H      0.409503    2.537656    6.446594
H     -2.738372    3.421372    7.083494
H     -4.826632    2.864391    5.364736
H     -1.639113   -1.814893   -4.350692
H      1.238390    0.087184   -8.639394
H      4.101239    1.285073   -7.455424
H      4.681907    1.610888   -4.813795
H      2.645188    0.846405   -3.420713
