37

C     -4.008046   -2.664753    4.129510
O     -3.076619   -1.589163    4.014570
C     -2.962412   -1.077475    2.753857
O     -3.595949   -1.495073    1.788671
C     -2.005900    0.017498    2.692657
S     -1.260401    0.642656    4.107907
C     -0.422073    1.835883    3.228909
C     -0.687750    1.758364    1.881631
C     -1.574886    0.686202    1.551765
N     -2.043886    0.346284    0.277005
C     -1.726004    0.945599   -0.912463
S     -2.992310    1.204808   -1.986768
N     -0.388554    1.224879   -1.176532
C     -0.002135    2.147861   -2.254918
C      1.474040    2.515920   -2.184936
C      2.372218    1.282377   -2.300348
C      1.680241   -0.004334   -1.820164
C      2.706134   -1.038134   -1.363369
C      0.667279    0.305089   -0.710266
H     -5.015126   -2.330612    3.861100
H     -4.019355   -2.992899    5.172551
H     -3.698713   -3.508497    3.504767
H      0.216658    2.545272    3.737522
H     -0.265096    2.455797    1.169227
H     -2.931457   -0.157672    0.275134
H     -0.615264    3.052810   -2.178676
H     -0.223644    1.668951   -3.216521
H      1.673835    3.013364   -1.227067
H      1.727499    3.234525   -2.972179
H      2.676749    1.146416   -3.345753
H      3.294795    1.469289   -1.736874
H      1.132616   -0.433027   -2.670969
H      3.273455   -0.680282   -0.497509
H      2.213687   -1.974418   -1.080477
H      3.415954   -1.261367   -2.166767
H      1.183152    0.785240    0.128175
H      0.220072   -0.626874   -0.347838
