44

Si     2.555457    2.782588   -3.202788
C      4.074374    3.819100   -3.743284
C      4.738756    4.310158   -2.674550
C      4.177134    3.960838   -1.405859
C      4.574948    4.286568   -0.138123
S      3.507447    3.595440    1.029984
C      2.506679    2.853234   -0.174559
C      3.011265    3.147262   -1.408900
C      1.362529    2.069526    0.190403
S      1.158135    0.445943   -0.349417
C     -0.335434    0.237958    0.485765
C     -1.072715   -0.985958    0.443847
S     -1.612066   -1.814858    1.874708
C     -2.346921   -3.125381    1.001747
C     -3.043141   -4.254608    1.626142
C     -3.211430   -4.382930    3.003617
C     -3.888735   -5.493439    3.505957
C     -4.381345   -6.447459    2.626887
C     -4.175946   -6.251099    1.273736
N     -3.523950   -5.185415    0.756535
C     -2.141796   -2.890879   -0.316292
N     -2.542707   -3.668300   -1.366005
C     -2.062589   -2.943352   -2.451003
C     -1.398177   -1.769931   -2.034565
C     -1.450428   -1.737453   -0.614639
C     -0.676457    1.390390    1.144542
S     -2.115701    1.840279    2.150221
C     -1.338970    3.405606    2.307268
C     -0.114774    3.558467    1.649528
C      0.292415    2.382217    0.963331
H      2.726775    1.365403   -3.607599
H      1.298200    3.429879   -3.653506
H      4.310672    3.950369   -4.786781
H      5.628740    4.923017   -2.760224
H      5.417383    4.884406    0.179981
H     -2.830001   -3.640986    3.696594
H     -4.028623   -5.608701    4.577278
H     -4.911966   -7.321605    2.987171
H     -4.542080   -6.968858    0.544989
H     -3.057004   -4.542707   -1.293350
H     -2.233180   -3.322153   -3.450340
H     -0.942503   -1.043793   -2.694326
H     -1.853969    4.153835    2.894443
H      0.441190    4.488109    1.672985
