46

C     -3.178443   -1.887949    1.216595
C     -3.931261   -1.328812    0.051910
C     -3.081414   -0.675244   -0.752685
C     -3.357153    0.018531   -1.980509
C     -4.582939    0.226769   -2.716381
C     -4.327753    0.948181   -3.818215
C     -2.861330    1.275651   -3.884013
C     -2.342726    0.618816   -2.639222
C     -0.941687    0.604271   -2.166009
C      0.057873    1.246779   -2.900096
C      1.385141    1.238126   -2.462855
C      1.724625    0.574760   -1.269485
C      2.955553    0.393492   -0.581338
C      2.712986   -0.351652    0.553463
N      1.364259   -0.620491    0.557960
C      0.726297   -0.071976   -0.532525
C     -0.620420   -0.076750   -0.947983
C     -1.718319   -0.741057   -0.207327
C     -1.768516   -1.444413    0.938239
C      3.601395   -0.826888    1.593397
C      3.634588   -2.161129    2.071445
C      4.523801   -2.625241    3.105130
C      5.466190   -1.807649    3.770691
C      5.411142   -0.506366    3.288783
C      6.178271    0.542827    3.723987
N      5.790103    1.648690    2.997316
C      4.786797    1.312650    2.111897
C      4.538472   -0.030819    2.261505
H     -3.542216   -1.470132    2.159900
H     -3.248062   -2.979294    1.245432
H     -4.993124   -1.442084   -0.100305
H     -5.546530   -0.148943   -2.409651
H     -5.056540    1.253346   -4.553420
H     -2.708056    2.359157   -3.865909
H     -2.412098    0.848899   -4.786166
H     -0.173425    1.766431   -3.825738
H      2.151996    1.742048   -3.044457
H      3.923962    0.763260   -0.892383
H      0.909774   -1.138760    1.290133
H     -0.965012   -1.689904    1.606951
H      2.965649   -2.895654    1.622592
H      4.467669   -3.677238    3.387243
H      6.127365   -2.166524    4.545866
H      6.951929    0.618968    4.475544
H      6.177351    2.577029    3.104420
H      4.349221    2.065111    1.470373
