40

C     -0.587912   -4.579640    7.009096
C     -1.178951   -4.909105    5.797956
C     -1.120090   -4.002943    4.741172
C     -0.464474   -2.780895    4.913838
C     -0.344544   -1.790740    3.815194
C      0.298696   -0.563755    3.984064
C      0.402002    0.320028    2.907050
C     -0.127919   -0.028166    1.664810
C     -0.018375    0.851962    0.500932
C     -0.748240    2.051319    0.431133
C     -0.660716    2.879651   -0.692374
C      0.164642    2.518728   -1.754372
C      0.905543    1.340684   -1.693198
C      0.814744    0.509131   -0.576424
O      1.742930    0.947849   -2.706696
C      1.799983    1.792799   -3.786170
C      2.648590    1.441687   -4.835359
C      2.739346    2.267291   -5.957443
C      1.980056    3.438465   -6.028571
C      1.132987    3.788937   -4.975461
C      1.047535    2.965186   -3.853831
O      0.210548    3.357748   -2.839022
C     -0.753277   -1.268961    1.583566
N     -0.876603   -2.142867    2.612450
N      0.109612   -2.451766    6.106292
C      0.032546   -3.348590    7.115464
H     -0.613386   -5.262547    7.850523
H     -1.677634   -5.864615    5.667347
H     -1.581814   -4.249979    3.788371
H      0.731176   -0.297213    4.943595
H      0.913304    1.269781    3.043459
H     -1.402313    2.341828    1.251642
H     -1.238348    3.799047   -0.738770
H      1.404051   -0.405176   -0.546358
H      3.239710    0.532070   -4.776739
H      3.402865    1.998695   -6.776176
H      2.051043    4.079700   -6.903857
H      0.544634    4.700706   -5.028552
H     -1.192818   -1.611114    0.649920
H      0.503857   -3.039958    8.043951
