32

O     -0.321946   -1.082020    1.443024
C     -0.299064   -0.535879    0.345877
C     -1.181342    0.611840    0.062033
C     -2.056416    1.082915    1.045945
C     -2.896081    2.159610    0.766745
C     -2.849640    2.762062   -0.491146
O     -3.684955    3.806664   -0.773200
C     -1.964211    2.317911   -1.483715
C     -1.948554    2.959070   -2.844119
C     -1.137759    1.217886   -1.194883
O     -0.300965    0.765966   -2.187246
C      0.515835   -0.302212   -1.912330
C      0.601021   -0.976055   -0.755275
C      1.523996   -2.117623   -0.617043
C      2.880630   -1.995617   -0.962694
C      3.751562   -3.082892   -0.839915
C      3.266394   -4.296973   -0.367576
O      4.078677   -5.383078   -0.232165
C      1.931060   -4.438508   -0.013885
C      1.062400   -3.351098   -0.135732
H     -2.088637    0.608478    2.024734
H     -3.578089    2.510118    1.535876
H     -4.235364    3.994302    0.004920
H     -2.231441    4.015534   -2.794773
H     -2.644240    2.438027   -3.509058
H     -0.947106    2.931543   -3.285963
H      1.098178   -0.541126   -2.794552
H      3.276086   -1.047304   -1.320359
H      4.795110   -2.960935   -1.111858
H      4.982283   -5.128709   -0.480207
H      1.564749   -5.389432    0.362437
H      0.021401   -3.476651    0.155923
