33

C      4.414280   -1.575150    0.546850
C      4.156135   -1.163061   -0.890177
O      2.744862   -1.033477   -1.120975
C      2.201334    0.175143   -0.823323
O      2.805872    1.133601   -0.366492
C      0.745546    0.157455   -1.117445
C      0.340936   -0.540120   -2.293711
N      0.013005   -1.111812   -3.249836
C     -0.124242    0.811238   -0.310378
C      0.245118    1.546356    0.954792
C     -1.570381    0.860269   -0.616586
C     -2.151805    2.056787   -1.047486
C     -3.518112    2.109555   -1.334641
C     -4.320975    0.974973   -1.197578
O     -5.637735    1.165663   -1.512684
C     -6.484176    0.024423   -1.454750
C     -3.744910   -0.218433   -0.762535
C     -2.376590   -0.275346   -0.471085
H      4.056469   -0.811763    1.244962
H      3.877690   -2.499730    0.783824
H      5.482663   -1.732840    0.719199
H      4.520967   -1.941427   -1.568277
H      4.687329   -0.238700   -1.144542
H      1.099638    1.090135    1.463823
H     -0.577586    1.527411    1.679449
H      0.479623    2.592999    0.734960
H     -1.551834    2.955706   -1.169226
H     -3.961287    3.043340   -1.672795
H     -6.148948   -0.752926   -2.149422
H     -6.554982   -0.361619   -0.432546
H     -7.486905    0.336048   -1.762748
H     -4.329790   -1.123749   -0.638602
H     -1.952578   -1.216937   -0.128782
