30

C     -3.094865    1.903533   -3.883944
C     -2.610778    3.029033   -3.220177
C     -1.761272    2.905192   -2.116431
C     -1.418647    1.611105   -1.707483
N     -0.615854    1.188757   -0.673330
C     -0.543359   -0.189656   -0.618939
C      0.240416   -0.929823    0.381180
C      0.278106   -2.321175    0.389798
N      0.975839   -3.071199    1.277474
C      1.681174   -2.413917    2.216028
C      2.415665   -3.123840    3.152773
C      3.153016   -2.464478    4.133132
C      3.128747   -1.083992    4.141688
N      2.430664   -0.345865    3.253210
C      1.723995   -1.008223    2.312780
C      0.989768   -0.292024    1.376557
C     -1.334982   -0.645414   -1.664085
C     -1.886383    0.470814   -2.350364
C     -2.740693    0.617466   -3.459699
H     -3.754310    2.023089   -4.740032
H     -2.897601    4.019892   -3.565224
H     -1.386130    3.783632   -1.601851
H     -0.146920    1.822162   -0.043620
H     -0.269600   -2.909413   -0.341270
H      2.411304   -4.209894    3.115466
H      3.728239   -3.017582    4.866840
H      3.684720   -0.516612    4.882924
H      1.023710    0.789749    1.452289
H     -1.511307   -1.680834   -1.924048
H     -3.121895   -0.254812   -3.981976
