30

O     -2.792111    0.360812   -4.302944
C     -1.613474    0.091269   -4.113255
C     -0.683424   -0.028346   -5.252910
C      0.606027   -0.326885   -5.078777
C      1.177425   -0.554467   -3.736917
O      2.362855   -0.830499   -3.610252
C      0.274418   -0.436962   -2.574801
C      0.779752   -0.642368   -1.282289
C     -0.054663   -0.539609   -0.155926
C      0.474764   -0.754650    1.202003
C     -0.129783   -1.686637    2.070231
C      0.340630   -1.922101    3.370914
C      1.449265   -1.178235    3.767906
N      2.180258   -1.122215    4.921001
N      3.181298   -0.231023    4.837880
N      3.129572    0.312815    3.627906
C      2.079766   -0.250319    2.952821
C      1.596392   -0.030169    1.655065
C     -1.408889   -0.223869   -0.362214
C     -1.916036   -0.018347   -1.649267
C     -1.071184   -0.125916   -2.757515
H     -1.105379    0.138751   -6.237334
H      1.291579   -0.416077   -5.913797
H      1.832879   -0.894974   -1.155981
H     -0.989398   -2.262131    1.725811
H     -0.136537   -2.646733    4.021646
H      2.061740   -1.642894    5.780936
H      2.090057    0.703469    1.025555
H     -2.082649   -0.121764    0.487775
H     -2.968387    0.228666   -1.780226
