29

C     -3.512974    4.253667   -2.290008
C     -2.366613    4.934415   -1.858857
C     -1.238309    4.244329   -1.398640
C     -1.338971    2.858756   -1.401552
O     -0.394010    1.959369   -1.007666
C     -0.987917    0.737298   -1.208104
C     -0.344302   -0.501822   -0.923293
C      0.918641   -0.765693   -0.421576
C      1.048721   -2.169306   -0.333617
N      2.077390   -2.950978    0.089963
C      1.839570   -4.289620    0.032079
C      2.636909   -5.401198    0.373740
C      1.869037   -6.513683    0.102256
O      0.647041   -6.158890   -0.385828
C      0.626067   -4.798466   -0.429900
N     -0.410311   -4.047246   -0.855705
C     -0.143141   -2.728214   -0.785808
N     -0.975218   -1.706532   -1.138723
N     -2.217469    0.802142   -1.691501
C     -2.451307    2.148321   -1.818585
C     -3.572751    2.851363   -2.276448
H     -4.373106    4.820377   -2.641903
H     -2.351921    6.022901   -1.881784
H     -0.343666    4.752269   -1.061563
H      1.664473   -0.031477   -0.148775
H      3.642046   -5.390380    0.767217
H      2.036839   -7.578069    0.196051
H     -1.912046   -1.815973   -1.502827
H     -4.458651    2.322412   -2.609554
