29

O      0.475811   -0.649641    1.323319
C      0.398461    0.257777    0.502629
C     -0.279582    0.040485   -0.788333
C     -0.869782   -1.194082   -1.085834
C     -1.506285   -1.381130   -2.314726
C     -1.544210   -0.332455   -3.230790
O     -2.154582   -0.471723   -4.441694
C     -0.958692    0.896287   -2.940348
C     -0.324585    1.080934   -1.712682
O      0.237869    2.307709   -1.474563
C      0.851897    2.504164   -0.261250
C      0.971302    1.615182    0.738454
C      1.671926    1.975121    1.988132
C      1.391673    3.182189    2.652199
C      2.063052    3.524591    3.829540
C      3.016947    2.661612    4.362285
C      3.287943    1.460810    3.719934
O      4.216827    0.635128    4.282354
C      2.629683    1.112443    2.541953
H     -0.834834   -2.006549   -0.362798
H     -1.961685   -2.341705   -2.536235
H     -2.519296   -1.369774   -4.510725
H     -0.997625    1.702618   -3.667006
H      1.248605    3.512236   -0.225458
H      0.638330    3.866186    2.266973
H      1.836872    4.460303    4.334016
H      3.539537    2.917922    5.279384
H      4.216347   -0.204362    3.792515
H      2.856139    0.169236    2.051949
