39

C      2.247095    3.714840   -1.087456
C      2.701138    5.170892   -1.219420
C      2.482339    5.856511   -0.076011
C      1.897620    4.990384    0.879369
C      1.472801    5.116743    2.161683
S      0.857117    3.607465    2.702707
C      1.170609    2.779308    1.184596
C      0.853071    1.399263    0.995281
C      1.073201    0.717722   -0.153061
C      0.661145   -0.690326   -0.100089
C      0.100332   -1.131788    1.124119
Si     0.062290    0.270326    2.326331
C     -0.324802   -2.453977    1.280120
N     -0.900069   -3.151393    2.344411
C     -1.108379   -4.424830    1.931521
C     -1.643303   -5.566691    2.535186
C     -1.569874   -6.527054    1.578862
C     -0.950543   -6.007680    0.252371
C     -0.698159   -4.607676    0.640959
C     -0.211712   -3.383342    0.237212
C      0.346826   -2.999574   -1.025532
N      0.477391   -3.835506   -2.044205
S      1.170309   -2.857559   -3.218641
N      1.283595   -1.399569   -2.396057
C      0.782407   -1.613796   -1.161132
C      1.737331    3.698881    0.320803
H      1.455716    3.493970   -1.809217
H      3.094210    3.036250   -1.221288
H      3.137761    5.579188   -2.118518
H      2.713047    6.898818    0.092292
H      1.482664    5.982568    2.808066
H      1.507109    1.109243   -1.061584
H     -1.328528    0.657696    2.677828
H      0.949827    0.021599    3.491835
H     -1.119051   -2.770300    3.254839
H     -2.029137   -5.664225    3.538302
H     -1.899364   -7.548519    1.701861
H     -1.669754   -6.091117   -0.566594
H     -0.030082   -6.549401    0.019524
