39

C      2.003822   -5.287597   -3.915106
C      1.677063   -4.301551   -2.831021
C      2.146830   -4.514045   -1.516030
C      1.835192   -3.629582   -0.470492
C      1.038104   -2.525729   -0.734734
C      0.574946   -2.348638   -2.050798
C      0.861774   -3.199366   -3.103442
C      0.582696   -1.479450    0.183482
C      0.844044   -1.334328    1.536580
C      0.295918   -0.237649    2.224867
C     -0.518245    0.729168    1.581650
C     -1.080918    1.860767    2.339130
C     -1.868539    1.638791    3.468089
N     -2.425933    2.608495    4.229743
C     -2.198292    3.881967    3.847320
C     -1.437456    4.247471    2.741935
C     -1.250495    5.695601    2.412561
C     -0.875339    3.206834    1.990964
O     -0.091958    3.470861    0.895152
C     -0.781535    0.577333    0.213452
C     -0.225497   -0.510915   -0.435668
S     -0.417048   -0.897367   -2.140691
O      0.287218    0.092962   -2.925766
O     -1.789260   -1.292630   -2.373769
H      1.261295   -6.091333   -3.925265
H      2.996620   -5.722481   -3.759194
H      2.012566   -4.801564   -4.896384
H      2.767281   -5.383072   -1.299689
H      2.219390   -3.825065    0.526165
H      0.465482   -3.009214   -4.096074
H      1.465572   -2.044846    2.073323
H      0.523037   -0.128957    3.285569
H     -2.091674    0.628472    3.803702
H     -2.666572    4.629237    4.483683
H     -1.619822    5.906780    1.403845
H     -1.799845    6.342247    3.105163
H     -0.191577    5.965553    2.477014
H      0.013451    4.426665    0.775186
H     -1.396792    1.289367   -0.329121
