48

C     -0.361721    3.247287   -0.534725
O     -1.655301    3.500687   -0.902323
C     -2.247311    2.292860   -1.178897
C     -1.342919    1.251833   -1.084883
C     -0.193161    1.902009   -0.591169
C      0.896635    1.123176   -0.176857
C      2.140668    1.450362    0.347574
C      2.712463    0.220157    0.644736
O      1.837012   -0.794658    0.323316
C      0.698292   -0.235434   -0.195259
C     -0.485288   -0.874304   -0.646998
C     -0.760184   -2.244662   -0.505269
C      0.088619   -3.156172    0.085782
S     -0.592228   -4.726244    0.166213
C     -2.038394   -4.200087   -0.585083
C     -2.008120   -2.857708   -0.899358
C     -3.068344   -2.176912   -1.566680
C     -4.295337   -2.790411   -1.903836
C     -5.244704   -2.102043   -2.641112
C     -4.946575   -0.847921   -3.163576
C     -5.870581   -0.245007   -4.034607
C     -5.566229    0.939709   -4.695451
C     -4.319025    1.511476   -4.515972
C     -3.406657    0.926339   -3.631096
C     -3.704497   -0.223310   -2.859179
C     -2.789394   -0.811975   -1.895468
C     -1.594209   -0.148873   -1.269922
C      3.992492   -0.194449    1.216059
C      4.976491    0.729210    1.558745
C      6.174418    0.266584    2.100616
C      6.356549   -1.098147    2.284841
C      5.328481   -1.948671    1.917957
N      4.158401   -1.528614    1.391402
H      0.226917    4.102319   -0.236655
H     -3.302598    2.362996   -1.403975
H      2.577053    2.424020    0.510596
H      1.079535   -3.012188    0.493667
H     -2.815325   -4.929771   -0.757952
H     -4.526943   -3.804611   -1.593296
H     -6.186660   -2.594537   -2.872478
H     -6.831156   -0.716730   -4.233309
H     -6.283047    1.386318   -5.378656
H     -4.040734    2.404633   -5.069448
H     -2.415891    1.373271   -3.588363
H      4.828893    1.792963    1.411786
H      6.958300    0.966512    2.376014
H      7.276370   -1.490675    2.703662
H      5.419181   -3.024222    2.040665
