41

C     -5.980749   -0.086545    2.947208
C     -5.399841    1.034510    3.489588
O     -4.292213    1.382409    2.786002
C     -4.159250    0.483921    1.766906
C     -5.174519   -0.449832    1.840808
C     -3.012494    0.641518    0.899432
C     -2.211980   -0.442840    0.496506
C     -1.067503   -0.344767   -0.366692
C     -0.336457   -1.489401   -0.606187
N      0.765894   -1.568547   -1.380967
C      1.208911   -0.517410   -2.077755
C      2.365110   -0.704839   -2.914907
C      3.144594   -1.932243   -2.967212
N      2.939280   -3.063091   -2.265556
S      4.102569   -4.153301   -2.690196
N      4.960287   -3.267013   -3.792834
C      4.358916   -2.070312   -3.871645
C      4.790728   -1.019895   -4.705464
C      4.030085    0.149202   -4.648488
C      2.884834    0.297015   -3.801909
C      2.137193    1.507347   -3.827307
N      2.393993    2.561696   -4.623708
S      1.208322    3.675025   -4.355263
N      0.337474    2.886910   -3.200830
C      0.941651    1.717039   -2.931413
C      0.506548    0.722509   -1.973305
C     -0.595889    0.843701   -1.002639
C     -1.366606    1.960614   -0.495125
C     -1.026122    3.284762   -0.653550
S     -2.176711    4.364516    0.017374
C     -3.090805    3.075396    0.666991
C     -2.521980    1.850812    0.393947
H     -6.870662   -0.582564    3.308138
H     -5.635608    1.668885    4.332751
H     -5.318466   -1.287331    1.172672
H     -2.474097   -1.427906    0.890774
H     -0.603032   -2.439931   -0.146858
H      5.655363   -1.120606   -5.350351
H      4.332386    0.980534   -5.289154
H     -0.160303    3.727877   -1.114435
H     -3.973799    3.303845    1.247482
