28

C     -2.780870   -5.409804    1.665590
C     -3.191990   -4.372312    2.472408
N     -2.854396   -3.091233    2.219658
C     -2.094613   -2.864195    1.140534
N     -1.751045   -1.597394    0.876184
C     -0.982892   -1.374444   -0.216086
C     -0.594326    0.008728   -0.524558
N      0.150597    0.354604   -1.558892
C      0.343108    1.724823   -1.580115
C      1.080231    2.441002   -2.531788
C      1.195512    3.827788   -2.435722
S      2.029680    4.936196   -3.455431
C      1.518565    6.226130   -2.452334
N      0.776460    5.902898   -1.417818
C      0.584590    4.532142   -1.397646
C     -0.152014    3.814058   -0.447111
C     -0.266562    2.427489   -0.544211
S     -1.097818    1.320960    0.471553
C     -0.574291   -2.424108   -1.021522
N     -0.908714   -3.712748   -0.774921
C     -1.667889   -3.942413    0.302814
N     -2.015868   -5.207319    0.574031
H     -3.054717   -6.438424    1.872648
H     -3.807318   -4.539712    3.349544
H      1.559886    1.902150   -3.344099
H      1.795591    7.250610   -2.664883
H     -0.631480    4.353676    0.365073
H      0.042079   -2.263083   -1.901425
