45

C      1.886983   -7.472916    1.655682
C      3.085182   -7.453001    0.948900
C      3.536165   -6.279882    0.335602
C      2.747195   -5.123277    0.452494
S      3.025434   -3.550208   -0.178918
C      1.551759   -2.987928    0.515535
C      1.093753   -1.588534    0.366512
C     -0.122131   -1.209467    0.964870
C     -0.609886    0.097331    0.860835
C      0.109927    1.063560    0.151832
N     -0.381689    2.397476    0.041982
C     -1.233341    2.788433   -1.042405
C     -1.645817    1.898235   -2.049357
C     -2.478215    2.322526   -3.090682
C     -2.913472    3.643728   -3.144750
C     -2.516974    4.541761   -2.157161
C     -1.685048    4.116329   -1.116479
O     -1.349472    5.077301   -0.190300
C     -0.535380    4.702310    0.853983
C     -0.224287    5.710326    1.772263
C      0.592909    5.430882    2.864561
C      1.097612    4.145051    3.037360
C      0.785961    3.137652    2.117965
C     -0.036867    3.398263    1.008198
C      1.321023    0.702366   -0.449055
C      1.806494   -0.607084   -0.342893
N      0.879042   -3.906664    1.182712
C      1.543823   -5.119831    1.155330
C      1.110371   -6.314678    1.764850
H      1.549064   -8.392707    2.127368
H      3.680171   -8.360761    0.871324
H      4.471352   -6.265386   -0.215748
H     -0.704924   -1.941054    1.523792
H     -1.552690    0.361601    1.333617
H     -1.327850    0.859207   -2.040093
H     -2.785448    1.616552   -3.858352
H     -3.560400    3.973298   -3.953409
H     -2.853925    5.574065   -2.193672
H     -0.621617    6.711863    1.632360
H      0.834649    6.213393    3.578914
H      1.735323    3.920677    3.888885
H      1.197386    2.146220    2.286965
H      1.889525    1.445942   -1.003176
H      2.752128   -0.832535   -0.828925
H      0.174803   -6.324856    2.315095
