40

C     -5.933169    2.374998   -0.099537
C     -4.673589    1.798336    0.111686
C     -4.016940    1.896898   -1.127181
C     -2.841511    1.587168   -1.719528
S     -2.930594    2.130874   -3.373828
C     -4.550535    2.732916   -3.208067
C     -4.936843    2.512311   -1.938677
O     -6.136632    2.839762   -1.387306
C     -1.642103    0.972730   -1.202383
C     -0.770538    1.591939   -0.278958
C      0.422971    0.988839    0.262487
C      1.192577    1.726929    1.159942
C      2.355720    1.197315    1.716145
C      2.786314   -0.106147    1.384272
C      3.974901   -0.658091    1.947614
S      5.084957    0.059851    3.072779
C      6.085328   -1.315322    3.103795
C      5.609508   -2.311263    2.287452
C      4.393728   -1.948466    1.613914
C      3.610649   -2.674462    0.714163
N      2.484519   -2.154519    0.179743
C      2.060251   -0.909840    0.486137
C      0.874467   -0.342274   -0.068723
C     -0.035687   -0.939167   -0.992068
C      0.026736   -2.197920   -1.542744
N     -1.063653   -2.354612   -2.367206
C     -1.833590   -1.214864   -2.353846
C     -1.214327   -0.315327   -1.518671
H     -6.780199    2.524147    0.557399
H     -4.312785    1.371881    1.036604
H     -5.102674    3.197183   -4.011546
H     -1.023554    2.606112    0.037668
H      0.898446    2.736355    1.443066
H      2.919721    1.815950    2.410199
H      6.975338   -1.330762    3.718197
H      6.107235   -3.266521    2.171186
H      3.861460   -3.682109    0.400141
H      0.739278   -3.003399   -1.428251
H     -1.269275   -3.189386   -2.900367
H     -2.740325   -1.159439   -2.940948
