44

C      0.841361   -3.880805   -1.761535
C      1.060236   -2.552359   -1.097898
C     -0.119922   -2.043716   -0.709467
C     -0.423629   -0.789935   -0.030360
C     -1.733312   -0.553720    0.227264
C     -2.807094   -1.477486   -0.157824
C     -2.585013   -2.656150   -0.791333
C     -3.706027   -3.465293   -1.117983
S     -4.844595   -4.110999    0.028661
C     -5.779251   -4.930400   -1.191008
C     -5.198189   -4.685502   -2.383882
C     -5.362296   -4.983290   -3.745274
C     -4.304830   -4.326237   -4.387414
O     -3.469778   -3.626413   -3.536042
C     -4.075364   -3.893908   -2.344281
C     -1.189820   -2.969037   -1.086028
C     -0.648923   -4.041373   -1.686315
C      0.544495    0.163610    0.418252
C      1.557498   -0.008687    1.344374
C      2.346272    1.163465    1.528205
C      1.926542    2.216154    0.738001
S      0.588740    1.756572   -0.231491
C      2.494999    3.567256    0.636063
C      1.679898    4.709159    0.624777
C      2.240545    5.986722    0.540327
C      3.623265    6.139202    0.468970
C      4.446725    5.015971    0.483454
C      3.886163    3.738637    0.568681
H      1.351623   -4.681187   -1.217825
H      1.183618   -3.863395   -2.800377
H      2.027047   -2.090805   -0.968287
H     -2.051844    0.345457    0.749325
H     -3.813632   -1.150586    0.092443
H     -6.655217   -5.509262   -0.935905
H     -6.124427   -5.580502   -4.224412
H     -4.018037   -4.261908   -5.429023
H     -1.185903   -4.892405   -2.076191
H      1.720876   -0.940843    1.872350
H      3.179769    1.230611    2.216913
H      0.598228    4.616970    0.691444
H      1.595378    6.861437    0.532069
H      4.058475    7.132893    0.401979
H      5.525855    5.131919    0.425654
H      4.547026    2.874790    0.568637
