42

Si    -0.127302    4.120854   -2.274017
C     -0.304410    4.459086   -0.462153
C     -0.346419    3.321268    0.263034
C     -0.470243    3.282509    1.723759
C     -0.472803    2.079906    2.338158
C     -0.377437    0.804955    1.596898
C     -0.394733   -0.398829    2.294017
N     -0.323644   -1.628990    1.750235
C     -0.239284   -1.653011    0.398645
C     -0.215475   -0.500006   -0.402545
N     -0.138370   -0.937373   -1.714352
C     -0.097237   -2.313744   -1.798172
C     -0.014486   -3.184749   -2.911755
C      0.009126   -4.583521   -2.722364
C     -0.056777   -4.971947   -1.383086
C     -0.046926   -6.293699   -0.998593
S     -0.140178   -6.464896    0.721530
C     -0.195236   -4.758939    0.969331
C     -0.141153   -4.139005   -0.243576
C     -0.161018   -2.732699   -0.483180
C     -0.274945    0.774664    0.187998
C     -0.242647    2.065429   -0.538856
C     -0.114666    2.286619   -1.864796
C     -0.567732    4.432348    2.571386
C      0.441238    5.114242    3.229783
C     -0.042026    6.221418    3.985602
C     -1.407468    6.356287    3.882859
S     -2.098955    5.156444    2.880835
H      1.173851    4.565655   -2.827425
H     -1.324178    4.497078   -3.063051
H     -0.359709    5.470041   -0.088783
H     -0.557249    2.011318    3.420082
H     -0.471865   -0.408752    3.379249
H     -0.123432   -0.339716   -2.522502
H      0.031296   -2.782409   -3.921061
H      0.072133   -5.272805   -3.555531
H      0.008989   -7.179890   -1.615226
H     -0.261875   -4.336507    1.962589
H     -0.005181    1.600634   -2.679893
H      1.484476    4.827649    3.167354
H      0.580916    6.884380    4.573358
H     -2.036604    7.103065    4.347395
