46

C     -1.725399    3.065780   -7.139884
C     -2.715225    3.029648   -5.970895
C     -2.141245    2.524505   -4.855039
C     -0.791893    2.185686   -5.134558
C     -0.512085    2.498539   -6.485710
C      0.777850    2.207377   -6.833676
S      1.632215    1.551684   -5.480780
C      0.254991    1.654940   -4.435139
C      0.354387    1.210723   -3.058504
C      1.174158    1.835429   -2.093368
C      1.253527    1.413112   -0.729476
C      0.519779    0.329659   -0.172300
C      0.612289   -0.043096    1.235230
C     -0.504083   -0.149595    2.061569
C     -0.331436   -0.488430    3.405565
C      0.950375   -0.711172    3.911947
C      2.004535   -0.565278    3.014894
N      1.868018   -0.230564    1.707308
C      1.193696   -1.056907    5.310217
S      0.174451   -2.202602    6.153878
C      1.068910   -2.095170    7.633603
C      2.074313   -1.225271    7.436250
O      3.011139   -0.854479    8.349928
C      3.741130    0.036135    7.584307
C      3.266152    0.191680    6.275345
C      2.150466   -0.662438    6.185933
C     -0.276371   -0.309256   -1.146951
C     -1.029870   -1.439488   -0.919631
S     -1.864906   -1.953650   -2.328517
C     -1.187831   -0.694700   -3.275950
C     -0.358507    0.116975   -2.534992
H     -1.562704    4.092219   -7.479875
H     -2.074638    2.438341   -7.964496
H     -3.737050    3.370718   -6.045312
H     -2.623131    2.395607   -3.895894
H      1.274553    2.337376   -7.784827
H      1.780495    2.691120   -2.393160
H      1.924463    1.968432   -0.070148
H     -1.501245    0.042965    1.677306
H     -1.206917   -0.558353    4.046391
H      3.034633   -0.727258    3.322328
H      0.822494   -2.649421    8.527301
H      4.572899    0.485994    8.111070
H      3.686971    0.842934    5.522609
H     -1.143158   -2.015683   -0.012164
H     -1.434043   -0.636875   -4.327524
