38

C     -0.469629   -3.274273    3.355377
C     -0.283278   -2.512068    2.016961
C      1.019959   -3.054013    1.392204
C     -1.489743   -2.902563    1.133764
C     -0.205142   -0.975956    2.183411
C     -0.260253   -0.384148    3.465112
C     -0.230579    1.003824    3.636330
Br    -0.313026    1.736063    5.378535
C     -0.157529    1.849584    2.540199
C     -0.093064    1.299734    1.264135
C     -0.082955   -0.092952    1.085042
O     -0.029095   -0.601680   -0.187641
C      1.124074   -0.197725   -0.916680
C      0.912065    0.916630   -1.954395
O     -0.182311    1.436215   -2.139581
N      2.098558    1.228546   -2.608721
C      2.162389    2.221849   -3.556929
N      1.222593    3.026542   -3.989510
C      1.853966    3.799293   -4.918623
N      3.149129    3.528121   -5.094682
N      3.322383    2.523728   -4.221346
H      0.372863   -3.108123    4.036964
H     -0.533761   -4.356729    3.189373
H     -1.392384   -2.974748    3.866098
H      1.018026   -4.150215    1.363538
H      1.896067   -2.737940    1.970580
H      1.165956   -2.719021    0.362736
H     -2.421259   -2.484961    1.533844
H     -1.607359   -3.991810    1.086035
H     -1.391622   -2.557776    0.100787
H     -0.339417   -0.993708    4.360459
H     -0.165970    2.928957    2.662207
H     -0.084691    1.970975    0.409209
H      1.952602    0.081645   -0.250960
H      1.455962   -1.080952   -1.476349
H      2.935705    0.708793   -2.389700
H      1.355410    4.579720   -5.479563
H      4.237222    2.101224   -4.134188
