28

C     -1.729122   -4.871661   -3.142092
C     -0.638357   -5.248500   -2.390958
C     -0.277895   -4.117340   -1.624813
N      0.727573   -3.959810   -0.724178
C      0.790571   -2.729467   -0.164348
C     -0.083754   -1.677883   -0.457283
C     -0.052593   -0.393020    0.098572
O      0.834388    0.062519    1.023661
C      0.525585    1.370924    1.306670
C     -0.574339    1.735296    0.542784
C     -0.952279    0.608937   -0.235913
C     -1.945872    0.325363   -1.178674
N     -2.020322   -0.905172   -1.748098
C     -1.115136   -1.847442   -1.384428
C     -1.180694   -3.112436   -1.960674
O     -2.067632   -3.578009   -2.889869
C      1.267913    2.159099    2.248728
C      1.068890    3.474550    2.625895
N      1.949463    3.978961    3.565810
C      2.809087    3.040269    3.893086
S      2.615702    1.529211    3.109094
H     -2.349828   -5.379563   -3.867474
H     -0.158592   -6.215541   -2.391094
H      1.593806   -2.597675    0.557607
H     -1.054039    2.704395    0.543810
H     -2.688791    1.048141   -1.498017
H      0.290535    4.126083    2.247729
H      3.597283    3.205384    4.616270
