25

C      0.877604   -2.138168    1.368441
C     -0.410642   -1.840479    0.925495
C     -0.746111   -0.556531    0.439869
C     -2.087508   -0.297258   -0.047769
N     -2.343282    0.411647   -1.200738
C     -3.646239    0.332341   -1.293685
O     -4.226973   -0.369063   -0.290760
N     -3.190427   -0.799795    0.535404
C      0.247624    0.453023    0.429363
C      1.520219    0.097510    0.877956
C      1.877011   -1.167614    1.345236
O      2.377064    1.146716    0.807448
C      1.676665    2.209166    0.336126
N      2.237871    3.420130    0.160277
C      1.372553    4.347978   -0.295692
C      0.029790    4.133633   -0.566998
C     -0.506218    2.860503   -0.368475
C      0.350684    1.844928    0.095562
H      1.106972   -3.137925    1.731307
H     -1.166372   -2.625529    0.947272
H     -4.301316    0.742517   -2.047107
H      2.886546   -1.375512    1.681584
H      1.808364    5.333514   -0.445603
H     -0.593697    4.945232   -0.927571
H     -1.555256    2.676084   -0.567970
