31

C      2.241142    1.817345    5.268669
C      2.709540    1.362022    4.044863
C      1.724598    0.899732    3.174888
N      1.820298    0.384932    1.901916
C      0.577299    0.055542    1.420101
C      0.343168   -0.503445    0.124085
C      1.247861   -0.821492   -0.878075
C      0.508387   -1.348939   -1.968682
C      0.801223   -1.844602   -3.245525
C     -0.251976   -2.283405   -4.041130
O     -0.148625   -2.791204   -5.299102
C     -1.410244   -3.091803   -5.706333
C     -2.325282   -2.783388   -4.724910
C     -1.582838   -2.256548   -3.636526
C     -1.873144   -1.760434   -2.359233
C     -0.818805   -1.322094   -1.565045
O     -0.920974   -0.815467   -0.310220
C     -0.336548    0.366606    2.407639
C      0.373260    0.899420    3.518831
C      0.003567    1.380609    4.780203
N      0.943469    1.836363    5.645823
H      2.934802    2.197810    6.014486
H      3.761955    1.369616    3.794838
H      2.687759    0.268830    1.399044
H      2.319183   -0.691818   -0.836836
H      1.820267   -1.889702   -3.614867
H     -1.490934   -3.510031   -6.700104
H     -3.395228   -2.921481   -4.786917
H     -2.892270   -1.715288   -1.989774
H     -1.407521    0.224160    2.335359
H     -1.024397    1.413431    5.122031
