36

C     -1.384814    1.684114   -3.789002
C     -1.768184    2.746995   -2.794838
C     -3.019204    3.372854   -2.926321
C     -3.426319    4.359659   -2.029240
C     -2.590059    4.735500   -0.985033
C     -1.344359    4.127102   -0.840218
C     -0.912473    3.133362   -1.740298
C      0.446361    2.505867   -1.521043
N      0.390777    1.421627   -0.557691
N      0.559021    1.636139    0.759417
N      0.524720    0.428854    1.303526
C      0.365720   -0.471915    0.274601
C      0.287120   -1.911689    0.487881
C      0.120124   -2.788813   -0.595569
C      0.044147   -4.168538   -0.393281
C      0.134334   -4.687797    0.897211
C      0.300540   -3.828750    1.990020
C      0.390960   -4.428564    3.343301
O      0.332809   -5.616577    3.601121
O      0.550872   -3.510309    4.311556
C      0.376326   -2.443939    1.783461
N      0.307643    0.126750   -0.928710
H     -1.190653    0.735393   -3.280857
H     -2.185003    1.505355   -4.515375
H     -0.496879    1.991260   -4.350246
H     -3.693219    3.090434   -3.732919
H     -4.399396    4.830137   -2.143840
H     -2.908564    5.498531   -0.279464
H     -0.709967    4.430175   -0.007955
H      1.157291    3.250645   -1.142703
H      0.876322    2.113432   -2.448012
H      0.046779   -2.399553   -1.610066
H     -0.085734   -4.836291   -1.241617
H      0.074195   -5.764144    1.048935
H      0.593371   -4.038214    5.136217
H      0.504848   -1.777121    2.634416
