41

C      3.949673    2.852903   -0.211330
C      2.632621    2.351291    0.357257
C      1.667893    1.942067   -0.752632
N      0.405274    1.455200   -0.227809
C      0.084351    0.144554    0.070817
N      1.000865   -0.851457   -0.022871
C      0.795620   -2.201921    0.185767
C     -0.240336   -3.018112   -0.039394
C     -1.542872   -2.718238   -0.689603
N     -2.318111   -3.764478   -0.807275
C     -1.586556   -4.827695   -0.231391
C     -2.016095   -6.138064   -0.123380
C     -1.162190   -7.070693    0.473220
C      0.102032   -6.683464    0.951567
C      0.534026   -5.358253    0.840921
C     -0.321203   -4.446864    0.245858
N     -1.165714    0.059765    0.467261
C     -1.667543    1.333288    0.437683
C     -2.950727    1.792726    0.768212
C     -3.225746    3.160688    0.658366
C     -2.242191    4.052844    0.228336
C     -0.956522    3.611414   -0.106811
C     -0.703622    2.238324    0.009016
H      4.626684    3.142193    0.598506
H      3.792846    3.726854   -0.851603
H      4.441973    2.075579   -0.804410
H      2.826900    1.501607    1.022467
H      2.183357    3.137818    0.975412
H      2.100116    1.157164   -1.383355
H      1.453073    2.789276   -1.413920
H      1.981496   -0.596199    0.039023
H      1.702741   -2.644989    0.593197
H     -1.785576   -1.716527   -1.061614
H     -2.993664   -6.424983   -0.494385
H     -1.481426   -8.105851    0.569502
H      0.748478   -7.425339    1.415332
H      1.507016   -5.064415    1.216562
H     -3.708114    1.091860    1.101801
H     -4.217238    3.528276    0.911766
H     -2.479761    5.112056    0.151448
H     -0.198634    4.312064   -0.439281
