49

C     -2.066331    1.887612    4.390964
C     -1.358294    0.556525    4.035490
C     -0.268807    0.248172    5.090940
C     -2.408255   -0.575007    4.078755
C     -3.140948   -0.851482    5.252185
C     -4.085630   -1.878197    5.291248
C     -4.311518   -2.654218    4.161490
C     -3.595658   -2.397690    2.993538
C     -2.661298   -1.353179    2.937497
N     -1.914899   -1.156142    1.769434
C     -0.996932   -0.113280    1.592117
C     -0.336284    0.023887    0.358480
C      0.636201    1.014452    0.139536
C      1.331492    1.161450   -1.156013
C      1.686292    0.060685   -1.938440
C      2.341746    0.341496   -3.138301
N      2.819973   -0.499898   -4.114609
C      3.398793    0.217215   -5.134729
C      4.002852   -0.211254   -6.314836
C      4.488219    0.803487   -7.125635
N      4.410812    2.122905   -6.845865
C      3.818550    2.514711   -5.690457
C      3.294331    1.567803   -4.801091
C      2.628879    1.644316   -3.537810
C      2.246047    2.691860   -2.695296
N      1.612382    2.439152   -1.522714
C      0.927439    1.870969    1.209753
C      0.296927    1.727336    2.449741
C     -0.667637    0.726406    2.665168
H     -1.370522    2.733301    4.420998
H     -2.843415    2.128876    3.654846
H     -2.547440    1.852453    5.374618
H      0.492639    1.034481    5.141589
H     -0.684612    0.155209    6.100389
H      0.247031   -0.692659    4.861452
H     -2.979777   -0.268860    6.156022
H     -4.637660   -2.073996    6.206750
H     -5.037355   -3.462039    4.189700
H     -3.769162   -3.023194    2.122297
H     -2.313463   -1.544342    0.925380
H     -0.603896   -0.651594   -0.450085
H      1.484899   -0.956477   -1.626708
H      2.754634   -1.507475   -4.087161
H      4.092064   -1.254568   -6.587288
H      4.976408    0.567649   -8.068160
H      3.780683    3.582839   -5.509535
H      2.430354    3.735372   -2.923665
H      1.667180    2.660609    1.083560
H      0.576960    2.412330    3.246342
