43

C     -0.223569   -1.166841    8.153471
C     -0.496533   -2.514871    8.138186
N     -0.724846   -2.880595    6.838726
C     -0.604655   -1.787915    6.007674
C     -0.291064   -0.707952    6.813755
C     -0.795976   -1.893582    4.582950
S     -0.650129   -0.522479    3.551655
C     -0.993191   -1.419800    2.126437
C     -1.006354   -0.732114    0.845639
C     -1.937119    0.279884    0.511434
C     -1.958427    0.957607   -0.748117
C     -1.054948    0.698560   -1.810937
C     -1.102990    1.394615   -3.087814
C     -1.505378    0.751345   -4.263850
C     -1.548575    1.454034   -5.466246
C     -1.189645    2.791150   -5.458263
N     -0.799932    3.454866   -4.350071
C     -0.767142    2.743382   -3.196973
C     -0.122246   -0.302784   -1.474047
C      0.890918   -0.723835   -2.305739
S      1.849900   -1.946711   -1.577640
C      0.927711   -1.909402   -0.130426
C     -0.098190   -0.993897   -0.197001
C     -1.222147   -2.743428    2.428733
N     -1.525272   -3.689205    1.491819
C     -1.700378   -4.909022    2.063680
C     -1.588564   -5.179311    3.431455
N     -1.288803   -4.262578    4.392754
C     -1.107428   -3.019127    3.843609
H      0.000547   -0.575321    9.031697
H     -0.547782   -3.243962    8.935401
H     -0.950971   -3.813210    6.509939
H     -0.125478    0.309032    6.481910
H     -2.693010    0.561669    1.246012
H     -2.731666    1.714449   -0.895115
H     -1.790828   -0.298194   -4.245836
H     -1.857860    0.969633   -6.385534
H     -1.207835    3.381700   -6.369811
H     -0.444875    3.311680   -2.327458
H      1.137295   -0.387541   -3.303618
H      1.201001   -2.569277    0.680963
H     -1.944741   -5.707135    1.367899
H     -1.746403   -6.190131    3.798205
