32

C      0.613168   -2.103562    3.947761
C      1.468382   -2.788392    3.074073
C      1.839423   -2.242357    1.839121
C      1.304776   -0.993312    1.550086
O      1.502661   -0.248706    0.424453
C      0.744379    0.875472    0.636025
C      0.837954    1.903106   -0.383010
C      1.295031    3.180060   -0.007605
C      1.464036    4.177979   -0.951712
C      1.182936    3.922027   -2.289884
C      0.697398    2.651456   -2.667398
S      0.304159    2.175172   -4.270453
C     -0.212350    0.644148   -3.769997
N     -0.690842   -0.231706   -4.679833
C     -1.103315   -1.401866   -4.161762
C     -1.070837   -1.732308   -2.822429
C     -0.565348   -0.798804   -1.919920
C     -0.094953    0.449815   -2.397362
C      0.488371    1.618851   -1.739622
N      0.120044    0.911010    1.799193
C      0.457145   -0.283171    2.384324
C      0.095772   -0.841424    3.616775
H      0.345514   -2.555517    4.901142
H      1.854366   -3.765055    3.361679
H      2.500300   -2.754760    1.151539
H      1.533622    3.383804    1.035552
H      1.827020    5.157998   -0.651360
H      1.327609    4.699731   -3.036250
H     -1.490280   -2.108819   -4.891962
H     -1.434383   -2.695194   -2.480392
H     -0.555184   -1.043709   -0.863489
H     -0.564596   -0.307956    4.291337
