48

Si    -2.302317   -5.163967   -0.435762
C     -2.557135   -6.755944   -1.474756
C     -1.798947   -6.739529   -2.593176
C     -0.991069   -5.569647   -2.753567
C     -0.122462   -5.214142   -3.749296
S      0.579905   -3.668922   -3.422163
C     -0.287403   -3.480938   -1.935034
C     -1.070904   -4.580753   -1.737636
C     -0.094018   -2.287033   -1.118627
C      0.451024   -2.384263    0.156312
C      0.617571   -1.239871    0.952561
C      0.233104    0.062054    0.549308
C     -0.262317    0.135275   -0.783702
C     -0.442413   -1.024033   -1.591428
C     -0.554050    1.463722   -1.184256
C     -1.107862    1.763170   -2.411428
S     -1.443132    3.429119   -2.579860
C     -0.845443    3.757841   -1.008944
C     -0.301632    2.651061   -0.388829
C      0.275481    2.672357    0.924826
C      0.690202    3.888440    1.711282
C      0.890676    5.182856    1.194584
N      1.228252    6.307226    1.887335
C      1.428503    6.170586    3.207954
C      1.336708    4.962039    3.859827
C      0.990433    3.824309    3.096530
C      0.897017    2.508081    3.583746
C      1.057776    2.134480    4.898189
N      0.829581    0.784720    4.966389
C      0.524111    0.300933    3.714482
C      0.627906    1.333922    2.806103
C      0.379816    1.283218    1.397334
H     -3.557246   -4.374060   -0.377165
H     -1.685705   -5.487036    0.876091
H     -3.237724   -7.525477   -1.148387
H     -1.795703   -7.543999   -3.319621
H      0.146170   -5.754517   -4.645929
H      0.782259   -3.346926    0.540600
H      1.129955   -1.392836    1.896420
H     -0.850604   -0.939704   -2.594599
H     -1.373823    1.104452   -3.225150
H     -0.971545    4.766290   -0.648776
H      0.844353    5.373907    0.127417
H      1.690754    7.080501    3.738738
H      1.540627    4.900345    4.921245
H      1.281549    2.694005    5.795832
H      0.837526    0.234140    5.815736
H      0.230679   -0.733704    3.625181
