31

C     -2.034095    0.275220    5.135826
C     -1.313097   -0.903365    4.506961
N     -0.178569   -0.485560    3.705002
C      1.126874   -0.462714    4.096199
C      1.838227   -0.003638    3.014535
C      0.874559    0.226550    2.000291
C      1.117814    0.726803    0.634442
O      2.239709    1.016532    0.245121
N     -0.055619    0.824589   -0.088135
C     -0.298616    1.231139   -1.374293
C      0.506465    1.597964   -2.384790
C      1.922478    1.659504   -2.446142
N      3.064837    1.740711   -2.635782
C     -0.292681    1.946564   -3.610856
C     -1.704540    2.116246   -3.068583
C     -1.744882    1.280118   -1.797839
N     -0.369847   -0.074561    2.434703
H     -2.418853    0.957819    4.370716
H     -1.362671    0.846784    5.785403
H     -2.878611   -0.073182    5.738219
H     -0.942467   -1.583582    5.281485
H     -1.986996   -1.470834    3.855763
H      1.436799   -0.764773    5.086950
H      2.906710    0.150850    2.945439
H     -0.862183    0.556311    0.478576
H      0.051994    2.869457   -4.088742
H     -0.243436    1.130902   -4.341247
H     -1.886334    3.171554   -2.826284
H     -2.467598    1.811456   -3.791676
H     -2.387111    1.750110   -1.045846
H     -2.115009    0.268183   -1.997429
