30

F     -1.716179    1.845397    1.875573
B     -0.348200    1.549354    1.417120
N      0.113253    0.211481    1.889907
C      0.567874   -0.745013    1.114314
C      0.911728   -1.858680    1.883652
C      0.639306   -1.526097    3.183663
C      0.148716   -0.250601    3.174977
F      0.538446    2.563689    2.012554
N     -0.251529    1.716973   -0.082046
C      0.213687    0.742144   -0.891046
C      0.657538   -0.560893   -0.347792
N      1.095106   -1.486986   -1.080645
C      1.295448   -1.606868   -2.475266
C      0.047544   -1.951843   -3.248904
C     -0.065772   -3.037535   -3.979557
C      0.149118    1.260730   -2.163454
C     -0.363098    2.566006   -2.109300
C     -0.600362    2.815072   -0.800608
H      1.307453   -2.764453    1.463556
H      0.800929   -2.188223    4.026720
H     -0.151218    0.271968    4.062868
H      1.374993   -2.383989   -0.527018
H      1.868376   -0.826111   -2.984747
H      1.979457   -2.528582   -2.672936
H     -0.803817   -1.274935   -3.203776
H      0.757662   -3.725575   -4.042600
H     -0.968853   -3.249130   -4.515618
H      0.437315    0.762340   -3.062754
H     -0.504301    3.174965   -2.993820
H     -1.006044    3.756853   -0.425661
