41

C      7.677071   -0.196180   -1.342333
C      6.253812   -0.196448   -0.864145
C      5.940226   -0.682658    0.424370
C      4.616984   -0.727482    0.892944
C      3.592451   -0.292441    0.065441
C      3.935152    0.173597   -1.216409
C      5.226337    0.230856   -1.709963
C      2.152706   -0.247399    0.330573
C      1.466415   -0.618843    1.475342
C      0.067317   -0.483764    1.507298
C     -0.671059    0.019632    0.405965
C     -2.136319    0.152907    0.481634
C     -2.745537    0.842799    1.545386
C     -4.138713    1.009276    1.628242
N     -4.677221    1.613243    2.774655
C     -2.978778   -0.401988   -0.487265
F     -2.463419   -1.077470   -1.526241
C     -4.364969   -0.301548   -0.394634
C     -4.959637    0.380743    0.676156
C     -6.459622    0.433418    0.766204
C      0.026969    0.390786   -0.751486
C      1.403876    0.246898   -0.750860
S      2.480245    0.657651   -2.080448
O      2.257611   -0.273443   -3.164765
O      2.493754    2.096330   -2.234080
H      7.918689   -1.161873   -1.796755
H      8.366514   -0.011396   -0.511912
H      7.840914    0.594067   -2.082519
H      6.739198   -1.033532    1.076679
H      4.417026   -1.104902    1.891301
H      5.422394    0.594210   -2.714006
H      1.984478   -1.013483    2.344307
H     -0.459639   -0.792298    2.410539
H     -2.118877    1.275966    2.322892
H     -5.609637    1.992411    2.645706
H     -4.056505    2.284252    3.217071
H     -4.970280   -0.777153   -1.161346
H     -6.931801   -0.158267   -0.025362
H     -6.808580    1.465805    0.662544
H     -6.799210    0.026780    1.724288
H     -0.484566    0.782544   -1.626262
