39

C      0.426018    4.997530    1.372665
C      0.980666    3.718045    1.436883
C      0.320727    2.615707    0.874116
C     -0.921083    2.812183    0.236414
C     -1.435268    4.104086    0.196798
C     -0.803732    5.218656    0.745950
O     -2.631481    4.124051   -0.448536
C     -2.900081    2.846680   -0.830828
C     -4.043067    2.452331   -1.524311
C     -4.152928    1.096416   -1.835949
C     -3.155711    0.193057   -1.463258
C     -2.005784    0.611820   -0.761223
C     -0.966042   -0.338286   -0.376606
C      0.087373   -0.639481   -1.247607
C      1.089831   -1.545919   -0.877282
C      1.070964   -2.187923    0.373692
C      2.115626   -3.146990    0.784426
C      2.821978   -3.953093   -0.109821
N      3.786559   -4.832213    0.267473
C      4.023721   -4.886308    1.594534
C      3.330138   -4.104064    2.499055
N      2.369902   -3.228968    2.119101
C      0.008534   -1.871692    1.239935
C     -0.995124   -0.967531    0.872225
C     -1.878884    1.985154   -0.436519
H      0.957446    5.836289    1.817228
H      1.938770    3.570183    1.930993
H      0.768641    1.628148    0.935801
H     -1.249933    6.203829    0.686638
H     -4.805076    3.169955   -1.804054
H     -5.027457    0.739866   -2.375901
H     -3.272227   -0.858808   -1.720919
H      0.141239   -0.156944   -2.222087
H      1.898705   -1.721591   -1.583219
H      2.626242   -3.932825   -1.176287
H      4.790547   -5.581815    1.915307
H      3.527934   -4.158126    3.563427
H     -0.044771   -2.337101    2.223784
H     -1.797476   -0.751873    1.575313
