41

C      1.260267   -6.317815   -1.507623
C      0.742294   -4.940847   -1.917552
C      0.356515   -4.934706   -3.398120
C      1.791121   -3.863297   -1.609485
O      1.301409   -2.555533   -1.944136
C      0.561280   -1.948767   -0.975253
O      0.281978   -2.386334    0.132202
N      0.127353   -0.680317   -1.423881
C      0.372837   -0.065326   -2.635589
C     -0.255814    1.152859   -2.598490
C     -0.861877    1.236830   -1.315953
C     -1.702019    2.365208   -0.851075
O     -2.224273    3.102450   -1.691166
N     -1.901244    2.586790    0.516839
C     -1.220061    1.911909    1.620036
C     -2.199567    1.001346    2.355253
C     -3.424614    1.795470    2.821510
C     -4.054182    2.589829    1.672511
C     -3.011756    3.434128    0.936417
N     -0.643242    0.106641   -0.620394
H      2.165112   -6.584635   -2.064248
H      0.506469   -7.089366   -1.696832
H      1.500022   -6.340346   -0.439321
H     -0.167175   -4.727170   -1.342683
H      1.227391   -5.120984   -4.035746
H     -0.387858   -5.710322   -3.607701
H     -0.078065   -3.972959   -3.689522
H      2.106857   -3.898886   -0.559344
H      2.692173   -4.026959   -2.211887
H      0.957265   -0.552142   -3.403533
H     -0.292118    1.897720   -3.382601
H     -0.864194    2.695142    2.301988
H     -0.326137    1.376582    1.302146
H     -2.526696    0.192262    1.691216
H     -1.707244    0.538981    3.217574
H     -3.124012    2.489187    3.616472
H     -4.166525    1.114858    3.253626
H     -4.515431    1.887635    0.966646
H     -4.852105    3.233724    2.058159
H     -2.610813    4.212172    1.596605
H     -3.482961    3.935906    0.085851
