36

O     -0.448632   -6.097077    0.910758
N     -0.611739   -5.190033    0.081601
C      0.284557   -4.029749    0.154183
C      1.308807   -4.002356    1.109178
C      2.158988   -2.894288    1.175588
C      1.987164   -1.810845    0.303548
C      0.968676   -1.859757   -0.658526
C      0.111633   -2.961638   -0.733666
C      2.912150   -0.673687    0.390114
C      2.595741    0.629805    0.477539
C      1.252294    1.214415    0.548302
C      0.331108    0.832749    1.520790
C     -0.942530    1.420609    1.567396
C     -1.342631    2.423706    0.666979
N     -2.621114    2.993230    0.703008
C     -2.854699    4.250052   -0.006289
C     -3.472918    2.757864    1.867271
C     -0.389785    2.788836   -0.300817
C      0.886344    2.206966   -0.357291
O     -1.478108   -5.196974   -0.804594
H      1.458301   -4.826777    1.803184
H      2.951583   -2.878143    1.921441
H      0.830880   -1.035032   -1.355727
H     -0.677013   -2.966966   -1.483091
H      3.966079   -0.946906    0.376946
H      3.403898    1.358840    0.503546
H      0.585695    0.070809    2.253309
H     -1.614289    1.062082    2.340983
H     -2.189009    5.039232    0.360475
H     -2.720430    4.126631   -1.086198
H     -3.884758    4.598691    0.129439
H     -4.446597    3.247427    1.752060
H     -3.688054    1.691214    1.992661
H     -3.010672    3.151136    2.779403
H     -0.616106    3.539544   -1.051542
H      1.579552    2.532875   -1.128965
