36

C     -2.528849    4.696730   -2.009253
C     -1.784919    3.531263   -1.727195
C     -0.605970    3.570418   -2.526122
C      0.524705    2.875217   -2.808301
S      1.399412    3.814010   -4.001993
C      0.219113    5.078391   -4.063257
C     -0.768202    4.759526   -3.205227
N     -1.890508    5.493806   -2.954351
C      1.028449    1.620721   -2.309938
C      2.201220    0.962616   -2.644157
N      2.438374   -0.241216   -2.004454
C      1.444242   -0.500035   -1.181700
S      0.197151    0.673646   -1.139327
C      1.403721   -1.686437   -0.371460
C      2.334699   -2.707105   -0.307641
C      1.855915   -3.652436    0.630716
C      0.646203   -3.179688    1.111560
O      0.382859   -1.983293    0.493935
C     -0.248203   -3.754773    2.077828
S      0.060623   -5.260010    2.869746
C     -1.395602   -5.202885    3.786702
C     -2.094411   -4.067724    3.494928
S     -3.668196   -3.459265    4.124737
C     -3.397839   -2.096819    3.047427
C     -2.218460   -2.127095    2.294233
C     -1.433861   -3.286876    2.546032
H     -3.477751    5.022451   -1.602199
H     -2.084782    2.765320   -1.024612
H      0.323382    5.943361   -4.702996
H     -2.161544    6.380285   -3.362207
H      2.936025    1.314814   -3.358573
H      3.252358   -2.752777   -0.879127
H      2.342024   -4.573887    0.920681
H     -1.674795   -5.980919    4.483727
H     -4.153849   -1.323506    3.032195
H     -1.954174   -1.338317    1.599883
