25

C      1.081888    4.034373   -1.208358
C      1.543053    2.980857   -0.434038
C      0.753728    1.833701   -0.472509
N      0.905664    0.624174    0.158757
C     -0.120623   -0.236560   -0.166403
C     -0.378811   -1.555229    0.232506
C      0.485371   -2.280945    1.138958
N      0.220414   -3.578000    1.523810
C      1.221629   -3.843719    2.323184
O      2.093552   -2.816642    2.470416
N      1.607204   -1.773111    1.683275
C     -1.530841   -2.111585   -0.311245
N     -2.375771   -1.480363   -1.163347
C     -2.101263   -0.205207   -1.532143
C     -0.964123    0.451685   -1.042396
C     -0.411357    1.757687   -1.234684
C     -0.790075    2.880140   -1.982793
N     -0.038945    4.009011   -1.962425
H      1.630902    4.972272   -1.242662
H      2.449243    3.053353    0.152935
H      1.665610    0.382404    0.782982
H      1.437243   -4.751460    2.866282
H     -1.824791   -3.130876   -0.067327
H     -2.804929    0.258401   -2.214691
H     -1.679384    2.907934   -2.601995
