45

Si     1.489074    3.030984   -6.837621
C      2.385211    2.341855   -5.300420
C      1.540589    2.203575   -4.254561
C      0.181306    2.590825   -4.510898
C     -0.093666    3.079651   -5.819512
C     -1.379897    3.464382   -6.035319
S     -2.294988    3.230356   -4.593662
C     -0.939080    2.595868   -3.709294
C     -1.100517    2.172858   -2.341771
C     -1.696467    2.876185   -1.315071
C     -1.696827    2.151065   -0.086899
C     -1.105625    0.905339   -0.195609
S     -0.574034    0.635246   -1.807544
C     -0.947804   -0.081091    0.854706
S      0.381369   -1.184248    0.873161
C     -0.113484   -1.937887    2.333757
C      0.687613   -3.024425    2.872877
C      0.889102   -4.260120    2.207661
C      1.678143   -5.332853    2.735034
C      2.347368   -5.282297    3.976279
C      2.149399   -4.064070    4.626989
C      2.711240   -3.785825    5.848365
S      2.293602   -2.206420    6.379865
C      1.359316   -1.897128    4.968920
C      1.354539   -2.972874    4.110473
C     -1.271238   -1.363750    2.806841
N     -1.896893   -1.769135    3.950795
C     -3.018478   -1.040127    4.184121
C     -3.484237   -0.003365    3.371429
N     -2.883838    0.426587    2.230166
C     -1.750185   -0.290566    1.961148
H      2.011043    4.370990   -7.204422
H      1.470049    2.035513   -7.938060
H      3.438979    2.115712   -5.326513
H      1.864075    1.835092   -3.287916
H     -1.844279    3.867196   -6.925147
H     -2.111725    3.870151   -1.431594
H     -2.115754    2.535869    0.835600
H      0.413626   -4.417196    1.238422
H      1.763782   -6.242522    2.139373
H      2.939368   -6.104606    4.355707
H      3.344183   -4.410922    6.462855
H      0.866514   -0.940736    4.866233
H     -3.564520   -1.318174    5.081325
H     -4.395041    0.527316    3.634990
