30

C      1.487558   -0.447198    2.801295
C      0.773199   -0.052705    1.570985
C      1.116104   -0.366657    0.310822
C      0.347845    0.069278   -0.839050
C      0.690731   -0.244722   -2.099207
C     -0.023610    0.149770   -3.329528
C      0.493587   -0.278493   -4.562771
C     -0.133633    0.059612   -5.765632
C     -1.290312    0.832884   -5.754319
C     -1.818063    1.266807   -4.541508
C     -1.189518    0.927835   -3.338263
C      0.970561   -0.018668    4.034529
C      1.597789   -0.356795    5.237380
C      2.754280   -1.130346    5.226064
C      3.281820   -1.564552    4.013262
C      2.653264   -1.225565    2.810028
H     -0.116671    0.552880    1.734370
H      1.995506   -0.968278    0.102458
H     -0.531525    0.670949   -0.630694
H      1.580578   -0.850344   -2.262579
H      1.396427   -0.884188   -4.602842
H      0.283305   -0.282254   -6.709279
H     -1.779620    1.096962   -6.687952
H     -2.721514    1.871111   -4.527826
H     -1.634475    1.286958   -2.415445
H      0.067867    0.587244    4.074600
H      1.180998   -0.014740    6.181024
H      3.243608   -1.394426    6.159685
H      4.185120   -2.169081    3.999582
H      3.098054   -1.584919    1.887219
