48

C     -3.617273    1.370333    4.530087
C     -3.732372    2.360312    3.390148
C     -4.542653    3.519043    3.499266
C     -5.363912    3.989829    4.588978
C     -6.011032    5.169607    4.319381
S     -5.652144    5.737833    2.762284
C     -4.606921    4.395820    2.415383
C     -3.891411    4.165200    1.217229
C     -4.003344    5.156305    0.078111
C     -3.090832    2.999817    1.105748
C     -2.280440    2.518403    0.012100
C     -1.624846    1.331547    0.265246
C     -0.759039    0.612366   -0.645421
C     -0.762681    0.696314   -2.025323
C      0.225581   -0.132601   -2.634079
C      0.974994   -0.837703   -1.712183
C      2.073572   -1.776043   -1.929617
C      2.284269   -2.945763   -1.192519
N      3.286358   -3.868393   -1.349164
C      4.249997   -3.718930   -2.311716
C      5.287740   -4.742843   -2.429140
C      6.072952   -5.100002   -3.514111
C      6.985126   -6.157189   -3.223813
C      6.874954   -6.585692   -1.922616
S      5.681104   -5.719665   -1.063680
C      4.173563   -2.574630   -3.149946
N      5.001358   -2.216914   -4.150675
S      4.440563   -0.788130   -4.764280
N      3.112276   -0.547352   -3.810466
C      3.045545   -1.577756   -2.945484
S      0.461309   -0.471223   -0.116524
S     -1.994349    0.781749    1.834466
C     -3.025315    2.125719    2.187881
H     -4.004224    0.394429    4.218761
H     -2.570065    1.262715    4.831602
H     -4.178390    1.679007    5.414974
H     -5.475655    3.479153    5.536881
H     -6.678038    5.721689    4.967141
H     -3.347587    4.910785   -0.760260
H     -5.030985    5.176132   -0.299457
H     -3.725881    6.158965    0.419794
H     -2.180713    3.042850   -0.929515
H     -1.447757    1.318608   -2.588236
H      0.372447   -0.202264   -3.705965
H      1.595004   -3.215014   -0.391055
H      6.001514   -4.629840   -4.487708
H      7.683672   -6.579804   -3.935494
H      7.437070   -7.368243   -1.431837
