33

C     -0.793325    1.289933   -3.546227
C     -1.072475    0.752973   -2.189326
C     -2.379226    0.926084   -1.533358
C     -2.347617    0.353665   -0.344536
C     -3.455306    0.299613    0.637192
N     -0.272306    0.090574   -1.411411
B      1.171480   -0.348653   -1.610480
F      2.058756    0.768613   -1.882182
N      1.690243   -1.111587   -0.399131
C      2.917992   -1.656334   -0.205393
C      4.082877   -1.641467   -1.148856
C      2.977365   -2.261564    1.031257
F      1.250330   -1.248069   -2.768326
C     -0.997657   -0.208019   -0.210540
C     -0.399844   -0.884657    0.755999
C      0.976420   -1.364938    0.696811
C      1.744317   -2.080767    1.613258
C      1.350408   -2.568798    2.956301
H     -1.293532    0.617066   -4.267635
H     -1.234996    2.315581   -3.667397
H      0.289353    1.399398   -3.714066
H     -3.244214    1.445290   -1.956975
H     -3.387278    1.170261    1.340265
H     -3.399889   -0.644499    1.252021
H     -4.447493    0.304965    0.157196
H      4.260579   -2.649951   -1.575172
H      4.996149   -1.421416   -0.529238
H      3.967337   -0.865198   -1.926766
H      3.832454   -2.775894    1.452289
H     -0.978537   -1.088072    1.640332
H      1.645621   -3.643190    3.115832
H      0.225307   -2.576601    3.041817
H      1.702122   -1.922848    3.776750
