22

C      1.476629    0.875493   -2.841962
C      0.192143    1.237958   -3.242814
C     -0.871281    1.247594   -2.335037
C     -0.595810    0.880257   -1.013030
N     -1.426953    0.798002    0.079681
C     -0.723624    0.392887    1.181134
C     -1.377588    0.203829    2.571572
C     -0.699887   -0.202412    3.700706
S     -1.786726   -0.285727    5.026129
C     -3.055079    0.222636    3.988158
N     -2.728096    0.448008    2.734470
C      0.586578    0.206769    0.806392
C      0.680288    0.512511   -0.582150
C      1.735003    0.510647   -1.515339
H      2.288029    0.875403   -3.565598
H      0.012392    1.518153   -4.278312
H     -1.870420    1.530246   -2.649867
H     -2.416618    1.003019    0.087758
H      0.345316   -0.447707    3.814987
H     -4.065906    0.348359    4.353547
H      1.398826   -0.112540    1.444436
H      2.738959    0.229666   -1.211957
