42

O     -5.722143    3.306298   -2.755472
C     -4.809338    3.543002   -1.990949
N     -4.575879    4.685402   -1.288925
C     -3.455134    4.601261   -0.520981
O     -2.988223    5.444773    0.216695
C     -2.898951    3.268101   -0.748253
C     -1.771702    2.666093   -0.222551
C     -1.474057    1.350691   -0.626995
C     -0.286387    0.655853   -0.102113
C      0.652974    0.074926   -0.963683
C      1.782113   -0.602819   -0.469370
C      2.016884   -0.691098    0.915353
C      1.083653   -0.094942    1.783657
C     -0.056152    0.554300    1.275832
C      1.276401   -0.173564    3.276930
C      2.743678   -0.372017    3.628788
C      3.303114   -1.547820    2.843578
N      3.135439   -1.346939    1.409861
C      4.169291   -1.831379    0.504343
C      3.562766   -2.323918   -0.800138
C      2.760534   -1.203744   -1.446561
C     -2.340093    0.702185   -1.551212
C     -3.477528    1.333741   -2.071026
C     -3.727643    2.620870   -1.647301
H     -5.167762    5.499272   -1.329246
H     -1.136136    3.207340    0.472895
H      0.513924    0.149674   -2.040767
H     -0.772183    0.983201    1.974800
H      0.678272   -1.007536    3.663743
H      0.918853    0.746032    3.754921
H      2.851646   -0.547473    4.704746
H      3.310959    0.536545    3.387912
H      4.365260   -1.663191    3.090536
H      2.801410   -2.477674    3.138245
H      4.725532   -2.655118    0.967467
H      4.887924   -1.025273    0.312155
H      2.909491   -3.183813   -0.602324
H      4.350431   -2.663512   -1.481593
H      3.432949   -0.412417   -1.799540
H      2.229063   -1.605598   -2.317213
H     -2.125521   -0.321301   -1.859906
H     -4.135661    0.832792   -2.773309
