34

C     -4.402713   -0.671093   -2.599642
C     -4.004805   -1.192677   -3.833411
C     -2.610532   -1.292172   -3.743265
C     -1.568971   -1.687697   -4.496283
S     -0.145408   -1.454337   -3.549234
C     -0.977203   -0.827343   -2.152892
C     -0.354767   -0.390861   -0.884554
C     -1.133898    0.109492    0.199753
C     -0.667474    0.564095    1.475692
C     -1.613116    1.014282    2.390968
C     -1.243288    1.472842    3.653084
C      0.111510    1.494942    4.044647
C      0.672403    1.930055    5.294163
C      2.036098    1.813569    5.334233
S      2.649947    1.186393    3.885075
C      1.089148    1.044545    3.136810
C      0.713873    0.573774    1.842239
C      1.529715    0.082918    0.791230
C      2.901555   -0.025831    0.853089
S      3.595957   -0.652170   -0.573579
C      2.063885   -0.794801   -1.316626
C      1.017809   -0.381420   -0.520661
C     -2.298865   -0.829674   -2.485083
O     -3.361552   -0.429532   -1.725498
H     -5.376845   -0.420453   -2.200149
H     -4.655334   -1.451875   -4.656098
H     -1.532109   -2.084572   -5.500729
H     -2.213450    0.161283    0.064659
H     -2.672793    1.018181    2.138709
H     -2.011784    1.817057    4.341637
H      0.087169    2.311105    6.122110
H      2.699286    2.068636    6.149366
H      3.590005    0.216852    1.642756
H      2.080932   -1.188114   -2.315898
