34

C     -4.492645    0.766301    1.386062
S     -3.372141    0.802466    0.102543
C     -2.034177    0.267427    1.085956
C     -0.682616    0.095974    0.473592
C      0.411789   -0.331467    1.234789
C      1.685650   -0.496187    0.671231
C      1.934715   -0.241656   -0.687782
C      0.844360    0.190725   -1.474452
C      1.043105    0.456755   -2.832841
C      2.300730    0.298157   -3.406697
C      3.383804   -0.130350   -2.629589
C      4.652241   -0.291202   -3.204470
C      5.719063   -0.716245   -2.426177
C      5.479387   -0.967195   -1.092324
N      4.271408   -0.822933   -0.505903
C      3.218780   -0.408204   -1.253622
C     -0.430868    0.350802   -0.889389
C     -2.488248    0.073353    2.386902
N     -1.706010   -0.346377    3.427144
C     -2.414127   -0.448418    4.582956
C     -3.775482   -0.165681    4.720978
N     -4.589251    0.252959    3.717075
C     -3.898545    0.362052    2.548058
H     -5.526415    1.040075    1.233720
H      0.315343   -0.552284    2.293515
H      2.497842   -0.831719    1.315869
H      0.218104    0.790943   -3.458724
H      2.427656    0.512006   -4.465567
H      4.814149   -0.086274   -4.259777
H      6.708071   -0.847480   -2.849084
H      6.274598   -1.302279   -0.432640
H     -1.235659    0.685924   -1.539723
H     -1.837249   -0.779107    5.442240
H     -4.260527   -0.275578    5.686753
