45

C     -4.407340   -0.293534   -1.939360
C     -4.927361   -0.280418   -0.499803
C     -3.910046   -0.261338    0.391150
C     -2.672596   -0.264858   -0.305635
C     -2.936208   -0.278101   -1.697282
C     -1.794463   -0.252104   -2.453664
S     -0.406199   -0.236252   -1.424686
C     -1.347509   -0.240271    0.029631
C     -0.742854   -0.246252    1.328709
S      0.525913    0.855910    1.786325
C      0.655633    0.232133    3.398789
C      1.564308    0.731264    4.383469
S      1.079099    1.027520    6.018011
C      2.632443    1.596349    6.492456
C      3.493300    1.561449    5.434569
S      5.230634    2.022102    5.318187
C      5.091324    1.525352    3.638633
C      3.835533    1.059381    3.231874
C      2.873139    1.080635    4.280327
C     -0.245862   -0.765251    3.521940
O     -0.473423   -1.547019    4.616192
C     -1.468607   -2.367267    4.120956
C     -1.824285   -2.100409    2.794108
C     -1.003750   -1.025702    2.404114
C     -1.636000   -0.275502   -3.896138
C     -1.978898   -1.402835   -4.673495
C     -1.841520   -1.442629   -6.080634
C     -1.357132   -0.359196   -6.833559
C     -1.007618    0.805999   -6.108006
N     -0.536555    1.943517   -6.641303
S     -0.296026    2.989865   -5.375111
N     -0.786224    2.053945   -4.097851
C     -1.149235    0.860997   -4.602840
H     -4.725540   -1.201428   -2.459134
H     -4.740095    0.596083   -2.481231
H     -5.977104   -0.272214   -0.246222
H     -4.015529   -0.230594    1.466600
H      2.847835    1.923721    7.500054
H      5.979077    1.606600    3.026112
H      3.648292    0.722481    2.219628
H     -1.823640   -3.101442    4.832629
H     -2.566963   -2.630606    2.215351
H     -2.358430   -2.292663   -4.169115
H     -2.121989   -2.356693   -6.605274
H     -1.256380   -0.403917   -7.911510
