35

C      1.525377    1.932745    4.815640
C      0.061577    1.597379    4.945084
C     -0.386573    1.107639    3.780380
C     -1.724632    0.650226    3.423699
C     -1.964346    0.187288    2.174208
C     -0.858713    0.180622    1.276132
N     -0.926661   -0.244415   -0.019862
C      0.323698   -0.126390   -0.606941
C      1.182340    0.416273    0.342812
C      0.437865    0.593568    1.520127
C      0.723145    1.083996    2.818372
C      1.834982    1.555005    3.392818
C      0.508209   -0.501093   -1.955731
C      1.292312    0.186644   -2.810859
C      1.365422   -0.399805   -4.157203
N      2.098123    0.199226   -5.110871
C      2.101620   -0.416294   -6.315779
C      1.409830   -1.591682   -6.601699
C      0.656975   -2.192670   -5.595241
C      0.636421   -1.582516   -4.350985
Si    -0.218246   -2.044601   -2.767662
H      2.125085    1.345238    5.517129
H      1.699028    2.999514    4.985211
H     -0.519087    1.737467    5.843285
H     -2.508895    0.690952    4.170397
H     -2.946572   -0.158831    1.874455
H     -1.766099   -0.564370   -0.481994
H      2.228908    0.643858    0.189913
H      2.800169    1.652786    2.922201
H      1.836671    1.093786   -2.589027
H      2.697731    0.075595   -7.079807
H      1.461280   -2.027631   -7.593859
H      0.110226   -3.109783   -5.791966
H      0.291404   -3.310214   -2.181020
H     -1.701610   -1.963523   -2.845626
