43

C     -1.542732    7.464470    0.864042
O     -0.963008    6.626781   -0.125921
C     -1.929546    5.980453   -0.954281
C     -2.419011    4.740474   -0.259518
C     -3.667777    4.560899    0.358970
C     -3.824652    3.272897    0.922413
C     -4.828960    2.687086    1.610342
S     -4.329617    1.090913    2.016627
C     -2.800734    1.258615    1.224997
C     -1.838251    0.196003    1.184978
C     -1.364123   -0.531502    2.254739
C     -0.419185   -1.551501    1.884261
C     -0.207616   -1.564124    0.507125
S     -1.163153   -0.361093   -0.278193
C      0.686672   -2.476923   -0.072363
O      0.897635   -2.460572   -1.445878
C      0.017143   -3.389056   -2.080357
C      1.448874   -3.355695    0.723151
C      2.467298   -4.306604    0.362107
C      2.979268   -4.984359    1.441510
S      2.251675   -4.492404    2.899506
C      1.230916   -3.348275    2.101166
C      0.283983   -2.484403    2.671952
O      0.094743   -2.478864    4.048681
C     -0.969553   -3.367171    4.392688
C     -2.676920    2.515820    0.690226
S     -1.346324    3.341013   -0.210077
H     -2.151790    8.245382    0.398606
H     -0.733586    7.944175    1.421589
H     -2.146151    6.883906    1.567300
H     -1.437122    5.713723   -1.895978
H     -2.752728    6.661351   -1.200646
H     -4.414610    5.344989    0.396414
H     -5.794245    3.073040    1.905767
H     -1.662913   -0.344444    3.279775
H      0.182447   -3.321580   -3.159747
H      0.234065   -4.416367   -1.768816
H     -1.032962   -3.148451   -1.883353
H      2.805655   -4.469068   -0.654239
H      3.750517   -5.742360    1.442802
H     -0.759579   -4.392213    4.069154
H     -1.921571   -3.025893    3.972353
H     -1.063276   -3.369346    5.482718
