37

C     -2.072868    0.419464    1.453185
N     -1.241899   -0.666845    1.972287
C     -1.445554   -0.766634    3.422734
C      0.197868   -0.475437    1.671968
C      0.698352   -1.066169    0.310160
C      2.232734   -1.059672    0.291360
C      0.250377   -2.538421    0.178911
N      0.104885   -0.347404   -0.839213
S      0.733338    0.915338   -1.720161
O      2.099497    0.621162   -2.086488
O     -0.258825    1.216567   -2.730349
C      0.742207    2.285696   -0.588683
C      1.939586    2.702335    0.001974
C      1.938456    3.801576    0.863915
C      0.749778    4.489100    1.111311
Cl     0.751432    5.840048    2.175964
C     -0.438346    4.096083    0.494725
C     -0.442498    2.996863   -0.366722
H     -3.127155    0.243180    1.697133
H     -1.789122    1.391885    1.870453
H     -2.028958    0.477887    0.364278
H     -1.112481    0.135566    3.948677
H     -2.503568   -0.933312    3.654934
H     -0.902514   -1.627181    3.829511
H      0.780078   -0.987223    2.452014
H      0.469209    0.583755    1.758885
H      2.626869   -1.450991   -0.652842
H      2.636768   -1.690272    1.092533
H      2.640694   -0.058432    0.446252
H     -0.840802   -2.631159    0.135680
H      0.642044   -2.986200   -0.742417
H      0.606501   -3.140012    1.022716
H     -0.843089   -0.611739   -1.105455
H      2.874789    2.188338   -0.209436
H      2.867082    4.123235    1.329172
H     -1.359060    4.645976    0.673377
H     -1.365447    2.704636   -0.863417
