35

C     -1.544500    6.831793   -1.309204
C     -2.481904    6.131712   -0.565800
C     -2.259846    4.784578   -0.271758
C     -1.097788    4.153712   -0.727607
C     -0.775952    2.719774   -0.462562
C     -1.598768    1.860228    0.266074
C     -1.218398    0.526406    0.467171
C     -0.019410    0.041074   -0.054580
C      0.392695   -1.355879    0.148327
C     -0.241773   -2.395755    0.827381
C      0.563763   -3.550791    0.734419
N      0.395807   -4.809602    1.219802
C      1.404210   -5.674044    0.922735
C      1.599185   -7.034805    1.236209
C      2.805928   -7.383510    0.667624
O      3.368791   -6.323159    0.022376
C      2.513323   -5.275671    0.176771
N      2.702553   -4.033713   -0.315307
C      1.686385   -3.205518   -0.002628
N      1.572769   -1.890147   -0.347631
C      0.739458    0.962598   -0.766605
N      0.394930    2.257173   -0.975612
N     -0.182949    4.851389   -1.457616
C     -0.418782    6.152542   -1.729637
H     -1.685942    7.877813   -1.554897
H     -3.382725    6.627072   -0.214379
H     -3.006612    4.258817    0.310543
H     -2.539031    2.190907    0.690750
H     -1.881817   -0.116521    1.039083
H     -1.190572   -2.340807    1.342556
H      0.943055   -7.677058    1.803858
H      3.377441   -8.301127    0.632167
H      2.271703   -1.405642   -0.890277
H      1.690777    0.703782   -1.219825
H      0.351220    6.646411   -2.315047
