28

F      0.016439   -0.860166    0.917773
B      0.828130   -0.658013   -0.295873
F      2.047384    0.009746    0.217431
C      0.087136    0.231801   -1.308505
C     -0.343494    1.567735   -0.860795
C     -0.088073    2.005879    0.412603
C     -0.485492    3.262478    0.859286
C     -1.159118    4.109040    0.008675
F     -1.573493    5.347840    0.384990
C     -1.415615    3.668461   -1.270971
C     -1.021052    2.420638   -1.714695
N     -0.137739   -0.189686   -2.491997
N      0.224999   -1.422053   -3.007502
C      0.919973   -2.339039   -2.165693
N      1.204573   -1.998343   -0.914026
C      1.873118   -2.915691   -0.151761
C      2.247818   -4.138631   -0.623179
C      1.965322   -4.516756   -1.916140
C      1.294052   -3.591471   -2.676245
H      0.437484    1.374936    1.109985
H     -0.278835    3.605535    1.875349
H     -1.943391    4.337631   -1.930096
H     -1.218265    2.067089   -2.717132
H      0.017287   -1.727232   -3.992920
H      2.101756   -2.627625    0.871910
H      2.783373   -4.871140   -0.009571
H      2.264051   -5.483296   -2.281240
H      1.043843   -3.824219   -3.691912
