41

Si     6.391603   -0.696101   -0.589804
C      6.876563   -0.177272    1.138113
C      5.785150    0.088186    1.879497
C      5.808285    0.550543    3.251579
C      4.639828    0.808292    3.866249
C      3.354267    0.619184    3.198619
C      3.237024    0.174797    1.922874
C      1.870283   -0.011559    1.389798
C      1.464712   -1.240376    0.877582
C      0.159310   -1.379955    0.404906
C     -0.722639   -0.298730    0.457558
C     -0.225181    0.888294    0.991273
N      1.033622    1.052179    1.465250
C     -2.091817   -0.432688   -0.028296
Si    -3.604622    0.063811    1.004342
C     -4.687311   -0.486892   -0.417941
C     -3.928847   -0.950757   -1.435892
C     -2.488389   -0.924484   -1.220907
C     -6.105709   -0.447114   -0.472461
N     -6.829766   -0.862275   -1.500892
C     -8.179053   -0.698891   -1.267319
C     -8.504744   -0.153557   -0.049676
S     -7.079086    0.166535    0.834127
C      4.482569   -0.097747    1.188776
C      4.596900   -0.487471   -0.098165
H      6.816943    0.281490   -1.620123
H      6.732276   -2.111583   -0.872540
H      7.908814   -0.098518    1.438868
H      6.756906    0.694662    3.755447
H      4.620863    1.166075    4.890957
H      2.470928    0.847408    3.791038
H      2.145986   -2.084801    0.853650
H     -0.161789   -2.340681    0.009820
H     -0.835182    1.786105    1.049615
H     -3.631926    1.530652    1.240759
H     -3.745947   -0.783077    2.216454
H     -4.335445   -1.325857   -2.369593
H     -1.815046   -1.277187   -1.993579
H     -8.888128   -0.998368   -2.029285
H     -9.484270    0.065227    0.349636
H      3.807071   -0.658293   -0.811239
