33

C      2.983883    2.041347    1.106188
N      1.634655    2.271402    0.658828
C      1.307846    2.274217   -0.680387
O      2.150454    2.222271   -1.574373
C     -0.178608    2.487142   -0.992149
N     -1.098474    1.834099   -0.047225
C     -1.805395    2.688910    0.811615
O     -1.726420    3.917250    0.747600
C     -2.741034    2.047216    1.807531
S     -1.815644    0.885238    2.812079
C     -1.283251   -0.133478    1.454594
N     -1.136397   -1.434756    1.798543
C     -0.732923   -2.295507    0.850282
C     -0.558260   -3.730592    1.244787
C     -0.507917   -1.891036   -0.455888
C     -0.681622   -0.541733   -0.825709
C     -0.531339   -0.250372   -2.293669
C     -1.031504    0.398924    0.167909
H      3.076734    2.404141    2.132342
H      3.694994    2.562414    0.459813
H      3.182264    0.966830    1.074283
H      0.888498    2.238246    1.341988
H     -0.403503    2.182333   -2.012620
H     -0.325455    3.573373   -0.989862
H     -3.160000    2.821524    2.457400
H     -3.567838    1.560801    1.279818
H      0.464921   -4.058660    1.036759
H     -1.258785   -4.362639    0.690294
H     -0.748129   -3.866817    2.314354
H     -0.214724   -2.632718   -1.196170
H      0.448515    0.182192   -2.508992
H     -0.616180   -1.165810   -2.891514
H     -1.338049    0.400922   -2.643227
