29

C      0.129947   -2.765047    0.036308
N      0.710514   -1.444088    0.044417
C      1.122453   -0.812437    1.179973
O      1.044603   -1.246291    2.319476
C      1.751386    0.500906    0.818610
C      1.570617    0.597206   -0.689409
S      0.527810    1.996449   -1.259701
C     -1.063188    1.618343   -0.527582
C     -1.877088    0.666322   -1.160121
C     -3.105014    0.290551   -0.607620
C     -3.545511    0.870084    0.579525
C     -2.770090    1.845960    1.202247
C     -1.547643    2.235879    0.636755
C     -0.811149    3.299798    1.333718
O     -0.350954    3.229658    2.456152
O     -0.773074    4.421703    0.597814
C      1.001936   -0.741283   -1.089836
O      0.830018   -1.124872   -2.238536
H      0.941810   -3.496087   -0.022492
H     -0.522219   -2.886762   -0.832934
H     -0.436363   -2.935711    0.955998
H      1.291000    1.311572    1.384750
H      2.815316    0.451379    1.075294
H      2.550243    0.709828   -1.166782
H     -1.564527    0.202459   -2.095313
H     -3.717793   -0.455619   -1.108907
H     -4.498451    0.573140    1.011403
H     -3.122049    2.311236    2.120772
H     -0.291304    5.069941    1.151466
