37

C     -3.506682    0.482113   -2.746780
C     -2.775156   -0.109916   -1.578913
C     -2.752906    0.549616   -0.345454
C     -2.086574   -0.013597    0.745352
C     -1.435715   -1.245758    0.617122
C     -0.706802   -1.829302    1.746396
C      0.379302   -1.294513    2.327838
C      1.048312   -0.036068    1.892068
O      1.208635    0.838991    2.741277
C      1.483295    0.094714    0.522811
C      2.074675   -0.831879   -0.327915
C      2.476089   -2.234826   -0.066722
N      2.313870   -0.286960   -1.567253
C      1.892088    0.955064   -1.492077
C      1.877758    1.993921   -2.465809
C      1.388925    3.207176   -2.145569
C      0.871523    3.488325   -0.816990
C      0.882176    2.512048    0.106004
N      1.389745    1.252448   -0.227742
C     -1.486061   -1.922424   -0.603794
C     -2.150419   -1.357064   -1.695089
H     -3.541242    1.574334   -2.675159
H     -3.003051    0.234792   -3.687105
H     -4.531074    0.099122   -2.779767
H     -3.250395    1.509565   -0.226646
H     -2.077155    0.521218    1.692640
H     -1.129724   -2.749355    2.142762
H      0.798557   -1.735771    3.225395
H      2.930485   -2.335796    0.923456
H      3.211354   -2.569529   -0.805538
H      1.611560   -2.901214   -0.127187
H      2.266051    1.778724   -3.454438
H      1.372180    4.008385   -2.877932
H      0.489069    4.479185   -0.598234
H      0.512117    2.657050    1.113123
H     -0.993795   -2.883986   -0.725117
H     -2.168703   -1.893260   -2.641317
