41

C      1.679316   -1.962580    1.340690
C      1.670971   -2.699385    2.664100
C      0.498631   -2.457273    3.274694
C     -0.318779   -1.593551    2.459185
C      0.327226   -1.279510    1.323428
C     -0.104471   -0.451140    0.227655
Si    -1.789133    0.427795    0.160274
C     -1.313136    1.143087   -1.543520
C     -0.076644    0.705263   -1.864697
C      0.583556   -0.165136   -0.897798
C     -2.138075    1.999234   -2.337534
S     -3.736741    2.483170   -1.778648
C     -4.086249    3.432482   -3.161686
C     -3.042236    3.403026   -4.038262
C     -2.902707    4.045943   -5.309782
C     -1.732086    3.814957   -5.939366
Si    -0.615743    2.678165   -4.904100
C     -1.961616    2.599128   -3.565294
C      2.782969   -3.500838    3.106072
Si     2.815013   -4.447078    4.763763
C      4.532327   -5.049728    4.314074
C      4.915558   -4.569618    3.118566
C      3.946844   -3.712734    2.450988
H      2.490321   -1.226109    1.307580
H      1.774730   -2.662995    0.503121
H      0.163937   -2.826567    4.232050
H     -1.303183   -1.276414    2.768348
H     -1.906814    1.468113    1.216423
H     -2.911942   -0.544836    0.090531
H      0.461697    0.942397   -2.769516
H      1.577073   -0.539134   -1.116048
H     -5.030736    3.951072   -3.246592
H     -3.685649    4.669657   -5.726019
H     -1.414422    4.193393   -6.897358
H      0.617601    3.382438   -4.472504
H     -0.378916    1.384350   -5.592129
H      2.826217   -3.540314    5.939393
H      1.824558   -5.552197    4.810322
H      5.097313   -5.696816    4.965910
H      5.872181   -4.788507    2.659930
H      4.189971   -3.290780    1.483277
