44

Si     4.159755   -3.456012    2.749101
C      3.954520   -3.583113    4.587803
C      3.047681   -2.714057    5.056631
C      2.430064   -1.868420    4.018386
C      1.476331   -0.919920    4.328707
C      0.940365   -0.161784    3.299607
C      1.353699   -0.346391    1.953453
C      0.738194    0.484394    0.986276
N     -0.219044    1.469997    1.120706
C     -0.550063    2.045116   -0.084486
C      0.229960    1.396969   -1.022656
C      1.042668    0.415989   -0.366465
C      2.010840   -0.525459   -0.799302
C      2.292366   -0.563310   -2.186862
C      3.224409   -1.451111   -2.703936
C      3.881787   -2.306790   -1.841910
C      3.605116   -2.271655   -0.466928
C      2.664109   -1.389231    0.130431
C      2.334685   -1.308068    1.557988
C      2.859471   -2.068394    2.663524
C     -1.540104    3.115444   -0.217232
C     -1.873557    3.700415   -1.460587
C     -2.827264    4.736148   -1.613454
C     -3.539699    5.286965   -0.537331
C     -3.255613    4.747956    0.739008
N     -3.826709    5.135578    1.889395
S     -3.157433    4.204736    3.086052
N     -2.110906    3.264608    2.205044
C     -2.238332    3.640693    0.915340
H      3.723037   -4.690592    2.049656
H      5.516768   -2.990185    2.367468
H      4.520933   -4.290127    5.173789
H      2.774226   -2.620426    6.099486
H      1.146906   -0.763301    5.350958
H      0.191965    0.577804    3.569140
H     -0.641345    1.752199    1.995661
H      0.224378    1.601532   -2.084320
H      1.785692    0.101633   -2.880848
H      3.432947   -1.472146   -3.769386
H      4.615817   -3.010219   -2.227150
H      4.169880   -2.978331    0.120288
H     -1.377179    3.345421   -2.363936
H     -3.016171    5.123299   -2.615458
H     -4.266626    6.079329   -0.669417
