35

C     -2.240159    0.624189   -4.074315
C     -2.295190   -0.278328   -5.283949
C     -1.837168   -1.514357   -5.029423
C     -1.437817   -1.548065   -3.636307
C     -0.909018   -2.552596   -2.868423
N     -0.599074   -2.375983   -1.559703
C     -0.815774   -1.162752   -0.975131
C     -1.355856   -0.088077   -1.704784
C     -1.552279    1.124095   -1.048782
N     -1.256524    1.336678    0.249460
C     -0.741269    0.316384    0.951220
C     -0.429480    0.510135    2.285848
C      0.107501   -0.524093    3.049896
N      0.338913   -1.746958    2.507230
C      0.030149   -1.924405    1.201683
C     -0.508482   -0.940250    0.375635
C      0.453031   -0.351382    4.481972
C      0.991311   -1.388233    5.248170
C      1.296682   -1.167583    6.590116
C      1.059953    0.082271    7.143630
C      0.525543    1.062934    6.328242
N      0.220125    0.876600    5.024590
C     -1.663028   -0.305473   -3.049319
H     -3.243082    0.957791   -3.793012
H     -1.581423    1.478034   -4.256770
H     -2.666311    0.050306   -6.245075
H     -1.768810   -2.343706   -5.714930
H     -0.711185   -3.541146   -3.268498
H     -1.965804    1.989199   -1.560043
H     -0.609533    1.483838    2.732981
H      0.236718   -2.923049    0.821568
H      1.173158   -2.363645    4.805830
H      1.715441   -1.968075    7.193065
H      1.285940    0.287436    8.183722
H      0.321139    2.058401    6.712206
