37

O      1.846895    4.064289   -0.655572
C      1.459558    3.009408   -0.158620
C      2.429638    1.976399    0.390653
C      2.190596    0.575655   -0.122141
C      1.810978   -0.452082    0.748088
C      1.584467   -1.747522    0.267064
C      1.737594   -2.040694   -1.095799
N      1.509220   -3.364983   -1.590218
C      1.647029   -3.793774   -2.900061
C      1.340960   -5.134689   -2.981728
C      0.996215   -5.560383   -1.685897
C      1.108878   -4.467650   -0.853669
C      2.122342   -1.009082   -1.964506
C      2.348966    0.284163   -1.480530
N      0.130524    2.690310   -0.003719
C     -0.930089    3.599125   -0.367694
C     -1.333155    4.366049    0.852461
C     -0.738842    5.494405    1.386129
C     -1.400941    5.952237    2.562679
C     -2.479169    5.161494    2.886281
S     -2.686150    3.871017    1.782714
H      2.367016    2.010892    1.485096
H      3.450179    2.277164    0.123568
H      1.691797   -0.258888    1.813529
H      1.296681   -2.502166    0.992603
H      1.960845   -3.124649   -3.686619
H      1.362819   -5.734325   -3.883165
H      0.700907   -6.556176   -1.382704
H      0.930703   -4.407727    0.209018
H      2.256070   -1.168119   -3.030179
H      2.649407    1.065084   -2.176834
H     -0.122990    1.835834    0.473390
H     -0.598437    4.276764   -1.162538
H     -1.757484    2.996969   -0.759852
H      0.136756    5.962867    0.948295
H     -1.100826    6.819534    3.137976
H     -3.157916    5.276874    3.720725
