38

C     -6.772207    0.095204    2.025780
O     -5.507753    0.214760    2.665231
C     -4.413137    0.315424    1.855136
C     -4.411171    0.292750    0.466155
C     -3.204393    0.408193   -0.244577
C     -1.967232    0.548698    0.406297
N     -0.741011    0.667510   -0.325985
C     -0.660600    0.914494   -1.682694
O     -1.548765    1.190016   -2.478524
C      0.764405    0.781752   -2.128313
C      1.532937    0.944525   -0.837385
N      2.825752    0.246278   -0.784814
C      2.749072   -1.209863   -0.662695
C      4.123307   -1.795568   -0.814731
C      5.104072   -1.931333    0.148895
C      6.288324   -2.534577   -0.363204
C      6.174406   -2.837895   -1.701238
S      4.649165   -2.392781   -2.333660
C      0.523228    0.560523    0.233374
O      0.831525    0.234614    1.372351
C     -1.995591    0.566044    1.808774
C     -3.198736    0.450974    2.520151
H     -6.989824    0.975073    1.411251
H     -6.829175   -0.824230    1.433925
H     -7.537331    0.036410    2.805988
H     -5.326847    0.183679   -0.106181
H     -3.280202    0.362845   -1.327426
H      1.023427    1.563215   -2.848942
H      0.884995   -0.198207   -2.599073
H      1.738715    2.011993   -0.680712
H      3.381743    0.478058   -1.607873
H      2.077329   -1.643685   -1.411268
H      2.364304   -1.496233    0.322060
H      4.974833   -1.603925    1.174020
H      7.179357   -2.731753    0.219733
H      6.915209   -3.297443   -2.341012
H     -1.095366    0.689422    2.403628
H     -3.180044    0.473736    3.607701
