39

C      0.335077    5.401096   -4.563420
C      0.827474    4.279013   -5.178948
O      0.730690    3.208043   -4.355145
C      0.157278    3.622223   -3.175488
C     -0.091121    4.983256   -3.278426
C     -0.086806    2.725697   -2.080117
S      0.745444    1.215953   -1.966682
C     -0.013152    0.778689   -0.487511
C      0.272160   -0.434387    0.211206
S      0.113316   -2.001133   -0.536738
C      0.612292   -2.860940    0.879184
C      0.691066   -4.300546    0.985015
C      0.188806   -5.032969    2.069094
N      0.214288   -6.395679    2.252244
C      0.789017   -7.210167    1.321454
C      1.356378   -6.615592    0.177293
N      1.968352   -7.256147   -0.832037
S      2.456706   -6.084927   -1.900676
N      1.915963   -4.720834   -1.132187
C      1.309660   -5.115827    0.003123
C      0.854090   -1.951812    1.844827
O      1.258664   -2.199677    3.122415
C      1.349311   -0.903892    3.595391
C      1.013505    0.075842    2.653127
C      0.676472   -0.636625    1.487206
C     -0.898750    1.748748   -0.101533
S     -2.018776    1.861474    1.318517
C     -2.509198    3.394536    0.626009
C     -1.876914    3.768122   -0.564253
C     -0.915991    2.815560   -1.008004
H      0.294341    6.396029   -4.983638
H      1.263677    4.084113   -6.148842
H     -0.516835    5.613807   -2.512081
H     -0.297992   -4.508080    2.892833
H      0.786343   -8.275478    1.509655
H      1.669788   -0.835745    4.627124
H      1.021621    1.144118    2.816291
H     -3.272603    3.951033    1.153183
H     -2.129220    4.688507   -1.074586
