42

Si     3.255572   -3.461421    2.683519
C      3.586414   -5.296902    2.403177
C      2.524678   -5.906695    1.844558
C      1.383022   -5.044979    1.579057
C      1.542097   -3.757721    1.947194
C      0.587148   -2.682184    1.765668
C      0.444018   -2.001940    0.535194
C     -0.495931   -0.953395    0.401076
N     -0.800989   -0.149830   -0.692358
C     -1.785565    0.738246   -0.351622
C     -2.124025    0.505536    0.973691
Si    -3.473622    1.692490    1.491146
C     -3.463510    2.476022   -0.297593
C     -4.277062    3.541618   -0.773963
C     -4.174936    4.022954   -2.099253
C     -3.209635    3.349603   -2.864512
C     -2.958379    3.668470   -4.175818
S     -1.726173    2.668400   -4.835280
C     -1.527227    1.803583   -3.358672
C     -2.377434    2.262371   -2.383650
C     -2.472448    1.782821   -1.079793
C     -1.335772   -0.524973    1.425770
C     -1.240079   -1.194538    2.683765
C     -1.979392   -0.932189    3.799226
S     -1.508846   -2.016373    5.051889
C     -0.338782   -2.791317    4.045732
C     -0.282116   -2.240926    2.780911
H      4.120085   -2.611989    1.825963
H      3.218029   -3.130605    4.130138
H      4.526574   -5.747947    2.678118
H      2.494822   -6.960853    1.597450
H      0.486159   -5.438744    1.115795
H      1.064746   -2.284351   -0.312231
H     -0.352719   -0.226234   -1.592402
H     -4.783343    1.049958    1.773372
H     -3.054552    2.696006    2.503740
H     -5.001854    4.005916   -0.106300
H     -4.791442    4.833635   -2.467482
H     -3.421848    4.427900   -4.790344
H     -0.792536    1.016072   -3.320867
H     -2.753120   -0.202286    3.977718
H      0.233188   -3.611827    4.456190
