46

C      0.130792    4.102211    3.928620
C     -1.339903    3.708961    3.986068
N     -1.511255    2.254144    4.181718
C     -2.851018    1.876362    4.677821
C     -2.854163    0.481525    5.290473
C     -1.114749    1.502768    3.053877
C     -0.013951    0.648228    3.177752
C      0.431558   -0.124446    2.098229
C     -0.217716   -0.055044    0.867227
N      0.159067   -0.801475   -0.269158
C      1.248257   -1.644636   -0.395823
O      2.125728   -1.846640    0.434457
C      1.357848   -2.334059   -1.712862
C      2.636031   -2.568816   -2.239438
C      2.782600   -3.217042   -3.467735
C      1.654053   -3.643217   -4.164066
C      0.376769   -3.402098   -3.645830
C      0.224958   -2.767549   -2.413348
O     -0.777011   -3.773642   -4.288465
C     -0.528942   -4.109942   -5.659227
C      0.700323   -4.994742   -5.783426
O      1.871540   -4.292520   -5.351812
C     -1.322232    0.795204    0.736478
C     -1.765026    1.566572    1.817546
H      0.622586    3.702668    3.036192
H      0.227985    5.192216    3.900777
H      0.670510    3.733147    4.807084
H     -1.781754    4.236966    4.840358
H     -1.868851    4.064532    3.093427
H     -3.147555    2.576634    5.468721
H     -3.612646    1.953818    3.892400
H     -2.673500   -0.292192    4.537708
H     -2.082887    0.390063    6.062466
H     -3.825361    0.275267    5.751517
H      0.505746    0.581666    4.130685
H      1.287419   -0.771571    2.259522
H     -0.401893   -0.646228   -1.095899
H      3.519964   -2.249238   -1.689992
H      3.774638   -3.402078   -3.870953
H     -0.774124   -2.639023   -2.008106
H     -1.412494   -4.634060   -6.036734
H     -0.413120   -3.179925   -6.229489
H      0.853735   -5.285525   -6.827354
H      0.600283   -5.908680   -5.184792
H     -1.855860    0.874524   -0.206470
H     -2.623400    2.217668    1.682163
