41

C     -1.081435    0.017143   -7.092600
C      0.173168   -0.341002   -7.599840
C      1.099449   -0.651234   -6.575723
C      2.392602   -1.044957   -6.583462
S      2.891717   -1.257556   -4.947052
C      1.357363   -0.793223   -4.318628
C      1.090594   -0.750804   -2.903319
C      1.041347   -1.885729   -2.056826
C      0.777302   -1.823579   -0.642871
C      0.530686   -0.621001    0.067036
C      0.281038   -0.559018    1.490258
C      1.070960   -0.982368    2.538070
N      0.538492   -0.813525    3.800311
C     -0.665379   -0.275972    3.726567
S     -1.197113    0.042832    2.111102
C     -1.533727    0.052115    4.856030
N     -2.586460    0.924181    4.672908
C     -3.413949    1.272649    5.704799
C     -3.340713    0.836831    7.021562
C     -2.283254   -0.061154    7.258812
N     -2.005700   -0.625326    8.444859
S     -0.683317   -1.597599    8.205736
N     -0.411863   -1.353385    6.591645
C     -1.339556   -0.480679    6.156316
C      0.600286    0.489981   -0.779648
C      0.473043    1.820428   -0.470582
O      0.634666    2.576244   -1.598880
C      0.875146    1.721621   -2.638517
C      0.864986    0.427115   -2.185797
C      0.484492   -0.503818   -5.332035
S     -1.248368    0.006238   -5.341101
H     -1.955315    0.296052   -7.665769
H      0.383391   -0.371096   -8.662015
H      3.065516   -1.225200   -7.409809
H      1.207250   -2.871477   -2.494630
H      0.758415   -2.767851   -0.095868
H      2.056706   -1.421553    2.439475
H     -4.200563    1.970222    5.415898
H     -4.029537    1.153042    7.791706
H      0.285620    2.380655    0.434798
H      1.031841    2.193574   -3.598425
