42

C     -4.385240    1.365311    5.247052
C     -3.930965   -0.021030    4.830664
O     -2.786830    0.070143    3.972096
C     -3.044489    0.235151    2.642218
O     -4.169489    0.309805    2.157438
C     -1.812710    0.305757    1.894433
O     -0.617407    0.131114    2.537827
C      0.369663    0.226712    1.608423
N      1.664520    0.086009    1.928563
C      2.511823    0.202760    0.882846
C      3.966601    0.038622    1.234920
C      2.110205    0.459150   -0.440965
C      0.736177    0.633756   -0.726308
C     -0.167311    0.480287    0.349471
C     -1.577119    0.511913    0.546749
N     -2.525518    0.704945   -0.397068
C      0.305272    0.923514   -2.142371
C      1.443607    1.481423   -3.015125
C      1.756922    2.953942   -2.704104
C      1.040759    1.376966   -4.493146
O      2.598260    0.646658   -2.863666
C      3.136810    0.610042   -1.540762
H     -5.221337    1.304780    5.949426
H     -3.564007    1.912548    5.721454
H     -4.699942    1.953192    4.379053
H     -4.742763   -0.583815    4.355777
H     -3.622853   -0.587820    5.715380
H      4.533915    0.929671    0.949291
H      4.383493   -0.839798    0.733148
H      4.092182   -0.102765    2.313837
H     -3.509773    0.557011   -0.162785
H     -2.335099    0.534904   -1.379447
H     -0.536476    1.624783   -2.149179
H     -0.047143   -0.029976   -2.557335
H      2.627806    3.291874   -3.277230
H      0.907668    3.600926   -2.949102
H      1.998023    3.115400   -1.648754
H      1.847225    1.737098   -5.142532
H      0.860599    0.333784   -4.777905
H      0.136725    1.956104   -4.708511
H      3.726418    1.519499   -1.379473
H      3.824549   -0.241596   -1.521902
