42

Si    -3.646077    5.239455   -2.770005
C     -2.118498    5.057481   -3.812242
C     -1.341571    4.052834   -3.364006
C     -0.183568    3.582274   -4.086912
C      0.447046    2.468887   -3.686262
C      0.029584    1.775915   -2.462794
C      0.652473    0.609268   -2.019864
C      1.631418   -0.129391   -2.635857
O      1.958209   -1.205284   -1.860454
C      1.184130   -1.145994   -0.736465
C      0.364228   -0.046970   -0.791608
C     -0.547807    0.413745    0.160989
C     -0.797211   -0.187544    1.399241
O     -0.266372   -1.348168    1.875846
C     -0.774290   -1.576146    3.131716
C     -1.631705   -0.533346    3.448024
C     -1.649539    0.357722    2.344228
C     -2.270912    1.577446    2.053295
C     -2.035354    2.185052    0.801284
C     -1.220903    1.629792   -0.218138
C     -1.000068    2.233953   -1.553767
C     -1.813580    3.369347   -2.127155
C     -3.039147    3.791995   -1.745000
C     -0.403134   -2.735289    3.900056
C      0.467330   -3.733133    3.502255
C      0.629241   -4.748785    4.489582
C     -0.123870   -4.495219    5.613063
S     -1.015727   -3.043648    5.471250
H     -4.889670    4.920488   -3.511347
H     -3.667253    6.502647   -1.993840
H     -1.971093    5.648374   -4.702371
H      0.133196    4.107465   -4.981924
H      1.297295    2.098277   -4.246221
H      2.175816   -0.054334   -3.566177
H      1.350430   -1.939240   -0.021489
H     -2.179812   -0.421624    4.372981
H     -2.912289    2.064719    2.782421
H     -2.480163    3.166820    0.669682
H     -3.686972    3.400924   -0.981381
H      0.967775   -3.734046    2.540880
H      1.265158   -5.618632    4.379168
H     -0.194766   -5.091897    6.512180
