32

O      1.701633    1.185126   -6.187411
C      1.688539    1.738639   -5.107242
N      2.153554    2.978555   -4.792113
C      1.975251    3.279077   -3.476853
O      2.280065    4.297189   -2.890215
C      1.327638    2.116270   -2.871928
C      0.925299    1.895635   -1.567448
C      0.318983    0.664073   -1.265572
C     -0.125271    0.379217    0.098508
C     -0.099815    1.081723    1.290401
C     -0.692827    0.250232    2.276028
C     -0.972704    0.346121    3.645020
C     -1.588640   -0.732533    4.270790
O     -1.930333   -0.808170    5.585503
C     -2.503939   -2.026126    5.773191
C     -2.535729   -2.736279    4.594098
C     -1.942700   -1.904235    3.609422
C     -1.662202   -1.998750    2.240311
C     -1.046257   -0.919472    1.615679
O     -0.704870   -0.843665    0.302588
C      0.146523   -0.293075   -2.302838
C      0.563180   -0.045448   -3.618318
C      1.152287    1.174039   -3.869263
H      2.581048    3.602337   -5.457572
H      1.083898    2.665068   -0.818612
H      0.297188    2.075600    1.439799
H     -0.719338    1.235495    4.212490
H     -2.831802   -2.235168    6.782078
H     -2.937011   -3.730812    4.461685
H     -1.915880   -2.888391    1.673639
H     -0.322303   -1.252348   -2.082345
H      0.428387   -0.780597   -4.405075
