45

O      0.682518    1.160541   -0.172161
C      0.180476    0.973446    0.927863
C     -0.232941   -0.371544    1.525266
N     -0.276816   -1.500120    0.579370
C      1.025360   -1.867591   -0.011282
C      1.125468   -1.762404   -1.554595
N      0.014780   -2.474708   -2.235951
C     -0.032259   -2.175512   -3.604908
C      0.942531   -2.733471   -4.450927
C      0.957311   -2.463383   -5.821288
C     -0.004947   -1.621516   -6.358015
F      0.004705   -1.356589   -7.670938
C     -0.975545   -1.046189   -5.550007
C     -0.986432   -1.321764   -4.178831
C     -1.251454   -2.525541   -1.475367
C     -1.342963   -1.393249   -0.429501
O     -0.070531    1.959480    1.836576
C      0.293950    3.266204    1.385950
C     -0.050261    4.243263    2.479424
C      0.874024    4.529771    3.494072
C      0.547770    5.421182    4.517499
C     -0.706656    6.027781    4.541382
C     -1.637830    5.740808    3.545027
C     -1.313721    4.849659    2.520647
H      0.467475   -0.607707    2.334887
H     -1.225788   -0.255985    1.976442
H      1.849963   -1.302288    0.439960
H      1.203287   -2.915929    0.261552
H      1.127049   -0.704304   -1.844146
H      2.085437   -2.191358   -1.866800
H      1.690229   -3.405148   -4.035597
H      1.709048   -2.906534   -6.465201
H     -1.713695   -0.381780   -5.986519
H     -1.737600   -0.834705   -3.565059
H     -2.136304   -2.515703   -2.121931
H     -1.283668   -3.492171   -0.955531
H     -1.307981   -0.427361   -0.947376
H     -2.315028   -1.460308    0.072673
H      1.369145    3.307717    1.171950
H     -0.254798    3.519308    0.470298
H      1.853970    4.057595    3.493688
H      1.271502    5.639986    5.298381
H     -0.960314    6.720754    5.339303
H     -2.618497    6.209022    3.567555
H     -2.054191    4.629447    1.754889
