36

C      0.656997   -1.806509    2.693039
C      0.535919   -1.471099    1.244067
N     -0.491316   -2.034411    0.494315
N     -0.247590   -1.694708   -0.856519
C     -1.368167   -1.739841   -1.818439
C     -2.208173   -0.454459   -1.720289
C     -0.836393   -1.889794   -3.257392
C     -2.280603   -2.953875   -1.540853
C      0.786940   -0.744418   -0.881359
O      1.168942   -0.072019   -1.825377
C      1.325444   -0.674214    0.508679
S      2.695748    0.237275    0.934968
C      1.889177    1.792133    1.268873
C      1.534464    2.651244    0.223644
C      0.907069    3.868818    0.494671
C      0.638359    4.237275    1.811926
C      0.998930    3.390783    2.859318
C      1.625557    2.172228    2.589080
H      0.771155   -2.887629    2.823791
H     -0.242645   -1.488754    3.230172
H      1.515625   -1.323366    3.167803
H     -0.580099   -3.040242    0.654573
H     -2.608040   -0.320102   -0.708734
H     -1.612175    0.434396   -1.955096
H     -3.054877   -0.479569   -2.415362
H     -1.656881   -2.029342   -3.970805
H     -0.167779   -2.754370   -3.340065
H     -0.277738   -1.008122   -3.585811
H     -1.708299   -3.888592   -1.560089
H     -3.077674   -3.032101   -2.289144
H     -2.764486   -2.881788   -0.560220
H      1.740942    2.377863   -0.809587
H      0.630747    4.528205   -0.324079
H      0.151315    5.186153    2.021724
H      0.794904    3.680408    3.886808
H      1.906235    1.524922    3.415906
