46

C     -2.503249   -3.135833   -0.026275
C     -1.514870   -4.021865    0.664574
C     -0.442765   -3.300329    1.034334
C      0.768979   -3.724017    1.731808
C      0.970311   -5.053177    2.131364
C      2.136767   -5.408646    2.790732
C      3.063142   -4.417963    3.027462
N      2.897612   -3.129532    2.654897
C      1.763714   -2.759519    2.008466
C      1.621704   -1.295961    1.608040
C      2.622651   -0.274115    1.875277
C      3.872166   -0.451491    2.536794
C      4.792153    0.583625    2.760680
C      4.512501    1.867176    2.331846
C      3.312644    2.112335    1.679819
C      2.382496    1.069315    1.452689
C      1.186613    1.415374    0.779965
C      0.629509    2.612780    0.232719
C     -0.597087    2.287176   -0.303598
O     -0.822487    0.956838   -0.115358
C      0.251713    0.421134    0.539599
C      0.415794   -0.915483    0.922845
C     -0.623028   -1.915147    0.632266
C     -1.814088   -1.806939    0.016237
C     -1.643104    3.032781   -0.991966
C     -2.820912    2.426148   -1.440965
C     -3.795541    3.179152   -2.095475
C     -3.564654    4.530314   -2.285340
N     -2.446694    5.161022   -1.871556
C     -1.518957    4.398947   -1.238287
H     -3.453796   -3.105911    0.514099
H     -2.673447   -3.460308   -1.056898
H     -1.675200   -5.076506    0.822913
H      0.226009   -5.818339    1.934136
H      2.315855   -6.428707    3.109557
H      3.996566   -4.633656    3.539543
H      4.180818   -1.421264    2.909327
H      5.726336    0.369196    3.273733
H      5.221697    2.671662    2.502950
H      3.112133    3.128579    1.350765
H      1.078902    3.595024    0.234426
H     -2.250694   -0.915093   -0.401757
H     -2.990728    1.364013   -1.285928
H     -4.712083    2.719337   -2.447633
H     -4.293325    5.158674   -2.789444
H     -0.638947    4.954188   -0.925821
