29

C      3.418957   -2.148249    4.053067
C      3.393324   -1.296696    2.958529
C      2.343624   -1.515793    2.069782
N      2.010319   -0.876534    0.900129
C      0.881538   -1.432901    0.346036
C      0.346225   -0.926399   -0.881202
N      0.922536    0.080219   -1.502905
C      0.219840    0.380453   -2.657337
C      0.532230    1.390717   -3.576012
C     -0.263533    1.587900   -4.704524
S     -0.106754    2.740554   -5.973863
C     -1.507334    2.095184   -6.717670
N     -2.085996    1.090234   -6.100667
C     -1.382800    0.790673   -4.946538
C     -1.694464   -0.219254   -4.027495
C     -0.898559   -0.416025   -2.899334
S     -1.053441   -1.566214   -1.630971
C      0.481099   -2.456095    1.183372
C      1.395514   -2.517938    2.273963
C      1.510794   -3.325005    3.412131
N      2.523790   -3.132266    4.293204
H      4.201131   -2.054614    4.802480
H      4.136388   -0.523747    2.814102
H      2.512336   -0.101685    0.486255
H      1.401527    2.017089   -3.397070
H     -1.890064    2.498301   -7.646387
H     -2.564242   -0.844894   -4.207905
H     -0.377146   -3.099655    1.038173
H      0.816339   -4.124315    3.643412
