48

C      3.483059    2.611810   -1.050843
C      2.398616    2.092767   -0.332562
C      1.954503    0.988999   -1.084878
C      1.004398    0.021409   -1.067647
S      1.244920   -0.952198   -2.501185
C      2.571325   -0.002812   -3.068354
C      3.310452   -0.285995   -4.272494
C      4.674826   -0.668185   -4.275504
C      5.420489   -0.963593   -5.462001
C      4.883509   -0.902172   -6.765368
C      3.544252   -0.511036   -6.760206
C      2.818824   -0.366811   -7.916812
S      1.213860    0.147316   -7.584207
C      1.495389    0.179095   -5.887242
C      2.777115   -0.211151   -5.572042
C      2.803046    0.969381   -2.166480
O      3.771585    1.926336   -2.215601
C     -0.045518   -0.296318   -0.102867
C     -1.328033   -0.687228   -0.489937
C     -2.296074   -0.967451    0.477740
C     -1.973617   -0.845543    1.828410
N     -0.735462   -0.465236    2.226808
C      0.186036   -0.205846    1.266194
C     -2.940603   -1.147765    2.878084
C     -3.781274   -2.300434    2.901938
C     -4.746855   -2.597340    3.929983
C     -4.987055   -1.774787    5.051182
C     -4.165324   -0.657407    5.015913
C     -4.146333    0.346952    5.948885
N     -3.198754    1.257958    5.533884
C     -2.627849    0.847323    4.348424
C     -3.201018   -0.353964    4.004663
H      4.137773    3.453715   -0.865844
H      2.008445    2.484922    0.595803
H      5.196775   -0.747246   -3.320525
H      6.466314   -1.251258   -5.347430
H      5.465826   -1.127269   -7.649076
H      3.132595   -0.525487   -8.939313
H      0.693973    0.486855   -5.230816
H     -1.597225   -0.768532   -1.539939
H     -3.294638   -1.262851    0.170529
H      1.159700    0.077215    1.657558
H     -3.684302   -3.028786    2.095119
H     -5.323356   -3.518024    3.834337
H     -5.712474   -2.003030    5.818035
H     -4.705045    0.506730    6.860648
H     -2.956142    2.107313    6.026368
H     -1.860151    1.442682    3.872798
