38

C      4.781144   -1.327995    4.962546
C      3.711573   -0.582446    5.434315
C      2.599988   -0.352359    4.618046
C      2.545745   -0.874799    3.298764
C      3.636844   -1.621057    2.851968
C      4.760105   -1.855978    3.670498
S      3.404969   -2.172394    1.244675
C      1.860976   -1.437119    1.113423
C      1.005218   -1.468559   -0.009050
C     -0.236376   -0.811631    0.032290
C     -1.136655   -0.834572   -1.129226
C     -1.545531   -2.029471   -1.719097
N     -2.365269   -2.160819   -2.786480
C     -2.802588   -0.988603   -3.290762
S     -3.843252   -0.961525   -4.634993
C     -3.900928    0.737948   -4.625740
N     -4.634750    1.404290   -5.542750
C     -4.588134    2.745016   -5.419164
C     -3.871451    3.436995   -4.459235
C     -3.127717    2.712403   -3.530851
C     -3.135971    1.301475   -3.608365
C     -2.490000    0.281870   -2.819951
C     -1.627519    0.347679   -1.700294
C     -0.592692   -0.136337    1.202146
C      0.258050   -0.109005    2.314695
C      1.512728   -0.767229    2.284601
H      5.643487   -1.504528    5.601235
H      3.735026   -0.174748    6.442030
H      1.769959    0.233980    5.004036
H      5.599303   -2.440177    3.302908
H      1.323381   -1.993984   -0.907282
H     -1.207670   -2.983057   -1.314664
H     -5.177567    3.285682   -6.156691
H     -3.889972    4.521353   -4.432952
H     -2.553988    3.226424   -2.765549
H     -1.339766    1.315147   -1.297288
H     -1.552870    0.372716    1.272093
H     -0.054779    0.422383    3.210261
