40

Si    -2.018401   -5.834141    2.332063
C     -3.324499   -5.731038    0.997606
C     -3.166077   -4.618402    0.255642
C     -4.026520   -4.254901   -0.862012
C     -3.798198   -3.121874   -1.554871
C     -2.695026   -2.295156   -1.161511
S     -2.334016   -0.844057   -1.983375
C     -0.974506   -0.541744   -0.919927
C     -0.832637   -1.539584    0.020219
S      0.525194   -1.236557    1.083908
C      0.885433    0.215640    0.261959
C      1.985048    1.041633    0.662760
C      2.240027    2.184950   -0.019892
C      3.330073    2.987718    0.442356
C      3.316417    4.237335    1.041513
N      4.546520    4.779856    1.361769
C      5.490568    3.941543    0.999114
S      4.971967    2.483821    0.263744
C      1.363751    2.541092   -1.156049
C      1.510681    3.639388   -1.928224
Si     0.208828    3.722410   -3.263132
C     -0.485409    2.117549   -2.612815
C      0.217946    1.667296   -1.556314
C      0.018500    0.476709   -0.785281
C     -1.824274   -2.558229   -0.113983
C     -2.020132   -3.751882    0.657912
C     -1.315598   -4.217435    1.706649
H     -2.594180   -5.714150    3.692898
H     -1.092383   -6.973240    2.125712
H     -4.078845   -6.493433    0.886666
H     -4.850178   -4.909676   -1.125497
H     -4.430798   -2.838975   -2.389779
H      2.587557    0.740238    1.515645
H      2.419532    4.801879    1.268707
H      6.540631    4.154734    1.151071
H      2.263912    4.407338   -1.847395
H     -0.720804    4.860882   -3.071281
H      0.784539    3.582583   -4.621760
H     -1.342064    1.667765   -3.084519
H     -0.453861   -3.779296    2.179682
