39

N      1.409562    4.595273   -5.686035
C      1.181707    3.813315   -4.859156
C      0.900404    2.847578   -3.837712
C      1.418281    3.014870   -2.550358
C      1.143046    2.072029   -1.554024
C      0.356861    0.946511   -1.834783
C      0.019965   -0.049304   -0.809539
C      0.876339   -0.484131    0.130250
N      0.690935   -1.425811    1.151824
C      1.847788   -2.069103    1.724557
C      1.898870   -2.373561    3.097240
C      3.017283   -2.995785    3.659578
C      4.106596   -3.328170    2.859086
C      4.078585   -3.039912    1.497348
C      2.960283   -2.416147    0.935798
C     -0.632144   -1.716527    1.635485
C     -1.042581   -3.046450    1.834590
C     -2.323088   -3.340414    2.309955
C     -3.213313   -2.308669    2.598238
C     -2.824528   -0.983855    2.413485
C     -1.544049   -0.690279    1.937005
C     -0.172038    0.795651   -3.123349
C      0.101982    1.736322   -4.121691
H      2.033702    3.879981   -2.310041
H      1.541173    2.235052   -0.554565
H     -0.981930   -0.467011   -0.866985
H      1.893202   -0.095734    0.132123
H      1.068640   -2.108921    3.748080
H      3.035272   -3.216319    4.723671
H      4.975701   -3.813061    3.295886
H      4.923863   -3.305145    0.867658
H      2.955331   -2.228172   -0.134995
H     -0.364113   -3.864406    1.603203
H     -2.623107   -4.375226    2.452293
H     -4.209143   -2.537064    2.969142
H     -3.514531   -0.176626    2.644678
H     -1.251773    0.350308    1.820729
H     -0.796695   -0.062825   -3.364253
H     -0.313609    1.593454   -5.117510
