42

C      7.658737    2.614744    0.432415
C      7.013112    2.156872    1.572358
C      5.697969    1.687117    1.490908
C      4.982996    1.659175    0.266228
C      5.665146    2.130771   -0.874519
C      6.988447    2.602301   -0.787234
C      4.985858    2.113603   -2.086382
N      3.719421    1.678863   -2.253608
C      3.062704    1.228300   -1.177444
C      1.759691    0.782773   -1.364652
C      0.964040    0.288270   -0.319333
C     -0.414372   -0.170702   -0.561127
C     -1.338883    0.646634   -1.215975
C     -2.652952    0.220288   -1.448448
C     -3.085056   -1.060913   -1.024264
C     -2.156904   -1.870929   -0.372917
C     -0.832392   -1.443512   -0.136846
S     -2.840089   -3.381148    0.068309
C     -4.373590   -2.988457   -0.591663
C     -5.522423   -3.805288   -0.600604
C     -6.694491   -3.322481   -1.185303
C     -6.728115   -2.056512   -1.749772
C     -5.585651   -1.250624   -1.738151
C     -4.376961   -1.710415   -1.151601
C      1.527017    0.249687    0.957184
C      2.835478    0.691395    1.171760
C      3.634203    1.190159    0.114544
H      8.680479    2.980313    0.491445
H      7.528396    2.162484    2.529696
H      5.238134    1.339696    2.412035
H      7.504848    2.963597   -1.674343
H      5.457983    2.463775   -3.001167
H      1.356019    0.814857   -2.375885
H     -1.049797    1.642298   -1.549332
H     -3.344182    0.885964   -1.959294
H     -0.135779   -2.112496    0.363428
H     -5.497947   -4.797827   -0.159288
H     -7.585489   -3.945825   -1.197091
H     -7.644366   -1.687139   -2.203847
H     -5.628706   -0.260737   -2.185430
H      0.947827   -0.114031    1.803984
H      3.218919    0.640644    2.186730
