30

C     -1.532761    7.270053    0.038784
C     -1.244788    6.683218   -1.175773
N     -0.906882    5.380051   -1.284299
C     -0.864157    4.673563   -0.137614
C     -0.523183    3.326326   -0.178063
C     -0.462939    2.543087    0.982944
C     -0.105317    1.127548    0.945971
N     -0.008549    0.271276    1.949479
C      0.355052   -0.903532    1.345548
C      0.611800   -2.174787    1.865210
C      0.965506   -3.172834    0.967506
O      1.260424   -4.477717    1.231485
C      1.533641   -4.997452   -0.000126
N      1.440808   -4.155155   -1.007624
C      1.077070   -2.979613   -0.403874
C      0.820112   -1.708017   -0.922538
C      0.466483   -0.710609   -0.024121
O      0.172049    0.592605   -0.288794
C     -0.757401    3.151617    2.206646
C     -1.101410    4.505020    2.259889
C     -1.160300    5.277871    1.109671
N     -1.495608    6.579794    1.198693
H     -1.802964    8.316856    0.115305
H     -1.277387    7.245901   -2.101544
H     -0.300700    2.888277   -1.149209
H      0.537111   -2.371710    2.928026
H      1.798787   -6.045199   -0.031183
H      0.894836   -1.511219   -1.985440
H     -0.721190    2.575321    3.130474
H     -1.328060    4.965663    3.218500
