35

S      2.645492    1.436787    2.210040
C      1.378658    0.766465    1.321464
N      1.579416   -0.501503    0.860935
C      0.675874   -1.581987    0.748003
C      1.149492   -2.750005    0.138344
C      0.330726   -3.876150    0.022569
C     -0.965735   -3.848867    0.529513
C     -1.438966   -2.698778    1.157045
C     -0.618779   -1.572129    1.272634
N      0.223615    1.445931    1.043136
C     -0.269141    2.678010    1.715588
C     -1.549531    3.068638    0.955952
N     -1.459160    2.231357   -0.220581
C     -0.452753    1.316686   -0.152464
N     -0.371381    0.609282   -1.245279
C     -1.408707    1.085543   -2.031361
C     -1.811813    0.680644   -3.312332
C     -2.899961    1.327559   -3.912617
C     -3.575317    2.359050   -3.253649
C     -3.193523    2.782608   -1.974997
C     -2.108500    2.121586   -1.397249
H      2.556854   -0.762460    0.809803
H      2.154404   -2.788851   -0.273321
H      0.705107   -4.770614   -0.467690
H     -1.605764   -4.722057    0.437401
H     -2.447379   -2.676538    1.560997
H     -1.009025   -0.706507    1.794492
H     -0.453127    2.476871    2.775663
H      0.488909    3.464374    1.625799
H     -2.456626    2.788508    1.498751
H     -1.569145    4.120547    0.662245
H     -1.283298   -0.119561   -3.818282
H     -3.220403    1.020709   -4.905544
H     -4.416642    2.843338   -3.745851
H     -3.719425    3.582470   -1.466188
