28

N     -2.128914   -1.894136    0.092499
C     -0.934720   -1.529439   -0.440382
C     -0.165084   -0.392615   -0.221203
C     -0.554824    0.685312    0.675358
C     -1.750774    1.383680    0.464466
C     -2.119488    2.424522    1.318807
C     -1.294851    2.774987    2.386585
C     -0.101760    2.086307    2.601610
C      0.269173    1.044309    1.748705
C      1.020171   -0.525322   -1.002971
C      2.111445    0.392700   -1.096046
N      3.018907    1.110457   -1.183151
C      0.929132   -1.717803   -1.685488
C      1.795107   -2.388113   -2.620019
N      1.478864   -3.533599   -3.156958
C      0.266217   -4.094580   -2.804246
C     -0.596038   -3.536648   -1.938576
N     -0.262950   -2.321939   -1.356537
H     -2.421019   -2.867757    0.104273
H     -2.463559   -1.391974    0.914998
H     -2.398988    1.124508   -0.370255
H     -3.047070    2.964679    1.147517
H     -1.579828    3.588068    3.049624
H      0.542523    2.362201    3.432733
H      1.201211    0.516553    1.936693
H      2.757222   -1.923289   -2.892721
H      0.030874   -5.043684   -3.279433
H     -1.543317   -3.987280   -1.680026
