43

C      5.039787    3.430017   -3.960196
C      5.009957    2.345916   -4.808895
S      3.815313    1.209179   -4.355563
C      3.310108    2.170979   -3.030198
C      4.062901    3.324510   -2.927195
C      2.244114    1.709649   -2.164855
C      2.426113    1.317929   -0.814384
C      1.359987    0.872402    0.044890
C      0.003973    0.787620   -0.358590
C     -1.079273    0.350315    0.483197
S     -1.284443   -1.292617    0.931584
C     -2.716523   -0.974962    1.848617
C     -3.451336   -2.015026    2.504127
S     -5.183401   -2.165598    2.419074
C     -5.225452   -3.586436    3.419218
C     -3.954894   -3.878645    3.760641
C     -3.206794   -4.817376    4.512235
C     -1.849910   -4.447277    4.399858
N     -1.690560   -3.309068    3.611955
C     -2.985256   -3.033129    3.266951
C     -2.952620    0.361975    1.781218
C     -3.935040    1.227650    2.337946
C     -3.739679    2.568851    1.988526
S     -2.356339    2.912851    0.965087
C     -2.055222    1.131240    1.035286
C     -0.159335    1.188029   -1.688047
C     -1.309595    1.242810   -2.434085
O     -1.023432    1.700531   -3.691112
C      0.323487    1.934148   -3.749337
C      0.901059    1.624193   -2.544034
H      5.729192    4.257619   -4.073535
H      5.634994    2.161758   -5.672239
H      3.913705    4.065745   -2.150458
H      3.434082    1.343748   -0.395830
H      1.621839    0.589851    1.065659
H     -6.153696   -4.078452    3.669060
H     -3.579444   -5.664285    5.073645
H     -0.971499   -4.914377    4.826859
H     -0.856511   -2.801725    3.339956
H     -4.754062    0.913557    2.973568
H     -4.350339    3.410126    2.289517
H     -2.350681    1.015568   -2.250471
H      0.687798    2.305553   -4.697204
