38

C      2.979841   -0.512897    0.746401
C      1.861843   -1.359076    0.197780
C      0.789473   -0.668473   -0.548069
C     -0.136838    0.195654    0.095083
C     -0.169159    0.429825    1.497410
C     -1.089699    1.289353    2.129247
N     -1.065032    1.501042    3.514730
C     -0.566800    0.416617    4.364078
C     -2.085964    2.350231    4.126105
C     -1.993153    1.943944    1.282789
C     -2.011238    1.725748   -0.100744
C     -1.103147    0.854433   -0.707085
C     -1.157551    0.635328   -2.095583
C     -0.249898   -0.227489   -2.684710
C      0.719336   -0.876344   -1.921874
C      1.547437   -1.782596   -2.782033
C      1.243395   -1.230433   -4.181954
C     -0.170239   -0.637826   -4.121565
O      1.837471   -2.580244    0.315109
H      3.011693   -0.614530    1.834164
H      2.845258    0.542387    0.493317
H      3.925346   -0.849691    0.312574
H      0.560018   -0.087083    2.113213
H     -0.712181    0.644338    5.426250
H      0.510744    0.273592    4.232327
H     -1.091809   -0.522393    4.155682
H     -3.080475    1.900012    4.034259
H     -2.090684    3.350994    3.680444
H     -1.883180    2.498906    5.192842
H     -2.730890    2.636392    1.676386
H     -2.754289    2.251157   -0.697364
H     -1.909135    1.127013   -2.708059
H      1.201594   -2.816583   -2.681922
H      2.616329   -1.719681   -2.559716
H      1.959132   -0.429684   -4.415313
H      1.345620   -1.990608   -4.962654
H     -0.928271   -1.397245   -4.339013
H     -0.278261    0.208015   -4.806180
