26

N      0.664736    4.708467    0.667067
C      0.228990    3.414640    0.363048
C     -1.134214    3.125261    0.305486
C     -1.580678    1.811290    0.119801
C     -0.673649    0.744847    0.030908
C     -1.142029   -0.637301   -0.161307
C     -0.751137   -1.662229    0.719069
C     -1.193439   -2.977583    0.541953
C     -2.039422   -3.280883   -0.530251
N     -2.506993   -4.659011   -0.722883
O     -2.112626   -5.519294    0.077458
O     -3.268663   -4.881974   -1.674928
C     -2.442865   -2.279536   -1.420182
C     -1.993732   -0.968254   -1.230598
C      0.692745    1.038657    0.150935
C      1.134790    2.354341    0.335183
H      0.026173    5.438589    0.367765
H      1.622425    4.896217    0.387734
H     -1.867249    3.921144    0.406748
H     -2.651716    1.625889    0.071098
H     -0.102696   -1.435562    1.564627
H     -0.872764   -3.742890    1.245752
H     -3.098028   -2.498131   -2.260901
H     -2.305479   -0.199067   -1.936159
H      1.432056    0.241865    0.103429
H      2.198875    2.540601    0.453721
