30

C     -3.645109    3.575351    1.214911
C     -2.771339    2.364777    1.046341
C     -1.395493    2.527123    0.843892
C     -0.562942    1.415193    0.684248
C     -1.083730    0.116460    0.721697
N     -0.166383   -0.943063    0.552906
C     -0.436817   -2.300502    0.499858
O     -1.552255   -2.807210    0.617637
C      0.775762   -3.210084    0.359505
N      1.906893   -2.615408   -0.337449
C      3.063880   -2.181727    0.257000
C      3.871964   -1.654326   -0.726488
C      3.182060   -1.783593   -1.955150
C      1.972918   -2.386843   -1.686984
C     -2.453281   -0.051464    0.924004
C     -3.289062    1.061800    1.084593
Cl    -4.976963    0.775888    1.332595
H     -4.402474    3.612993    0.425353
H     -4.134660    3.559999    2.193952
H     -3.063027    4.501290    1.154472
H     -0.957672    3.522796    0.807527
H      0.500044    1.584680    0.527011
H      0.796850   -0.658565    0.406969
H      1.106343   -3.514361    1.357915
H      0.491778   -4.103428   -0.207630
H      3.226265   -2.283157    1.322973
H      4.857435   -1.231438   -0.576981
H      3.532483   -1.477917   -2.932964
H      1.161035   -2.666111   -2.347679
H     -2.902563   -1.038216    0.963761
