39

Si     6.475807    2.045788    0.246243
C      7.504244    1.027784   -1.007645
C      6.737924    0.164392   -1.708354
C      5.369247    0.242609   -1.326565
S      4.066211   -0.637744   -1.925126
C      2.922791    0.160191   -0.868443
C      3.577888    1.109574   -0.055995
C      2.816292    1.848000    0.857251
N      1.482320    1.674220    0.977740
C      0.839816    0.782280    0.221780
C     -0.561764    0.670664    0.422105
C     -1.446632   -0.208647   -0.260811
C     -2.880712   -0.285383   -0.010978
C     -3.477258   -1.471519    0.445750
C     -4.850411   -1.536448    0.696111
C     -5.648789   -0.412871    0.496859
C     -5.075005    0.774981    0.050171
C     -3.701414    0.838010   -0.198898
C     -0.741728   -0.971244   -1.196031
C     -1.264530   -1.898027   -2.065146
N     -0.220178   -2.395560   -2.806114
C      0.959602   -1.789075   -2.429675
C      0.672578   -0.887604   -1.431439
C      1.531862   -0.016427   -0.737904
C      4.952572    1.116270   -0.353706
H      6.864243    1.727286    1.641947
H      6.477693    3.487218   -0.103971
H      8.568863    1.176807   -1.093018
H      7.106301   -0.510837   -2.470495
H      3.248975    2.594856    1.514576
H     -0.992966    1.321541    1.186262
H     -2.866426   -2.355785    0.617339
H     -5.293217   -2.463440    1.050386
H     -6.716643   -0.461847    0.692351
H     -5.694323    1.654448   -0.104933
H     -3.271508    1.773758   -0.551154
H     -2.274202   -2.248256   -2.233622
H     -0.304356   -3.097220   -3.530370
H      1.873225   -2.071241   -2.930548
