41

Si     0.299669   -3.420542    1.302163
C     -0.705032   -1.943657    1.817208
C     -0.417459   -0.873146    1.051965
C     -0.823604    0.468619    1.302723
C     -1.715667    1.031310    2.239029
C     -1.686727    2.404597    2.058928
N     -0.791814    2.662520    1.038950
C     -0.250909    1.491348    0.572268
C      0.692355    1.309771   -0.535747
C      1.285761    2.367679   -1.203119
N      2.095582    2.240842   -2.278191
C      2.270552    1.029226   -2.813277
C      3.065095    1.000943   -3.997315
C      3.330008   -0.124708   -4.809455
C      2.648017   -1.213728   -4.309449
C      2.561827   -2.445586   -4.898414
O      1.706178   -3.227064   -4.177576
C      1.256863   -2.477968   -3.125005
C      1.864307   -1.246036   -3.117213
C      1.666597   -0.141530   -2.230124
C      0.978342   -0.003787   -0.981088
C      0.552550   -1.115533   -0.062708
C      1.109396   -2.344647    0.000129
C     -2.409831    3.435311    2.748913
C     -3.327001    3.296305    3.776051
N     -3.881038    4.465934    4.265415
C     -3.379727    5.484326    3.604680
S     -2.238190    5.108023    2.383641
H     -0.528103   -4.492486    0.699502
H      1.256219   -3.854896    2.347778
H     -1.329790   -1.966380    2.695471
H     -2.311994    0.496755    2.966406
H     -0.589797    3.589191    0.690826
H      1.137251    3.396125   -0.889423
H      3.492570    1.953842   -4.319298
H      3.919438   -0.087401   -5.713680
H      2.972446   -2.899699   -5.789166
H      0.509561   -2.967215   -2.518146
H      1.930581   -2.737895   -0.575317
H     -3.634582    2.354556    4.214094
H     -3.667585    6.506123    3.815130
