36

N      1.114630   -1.121397    0.443607
C      0.716307   -0.985860    1.766007
C     -0.528476   -0.291567    2.094445
C     -0.915290   -0.164147    3.437693
C     -2.094805    0.492302    3.769289
C     -2.888927    1.022022    2.759548
C     -2.508592    0.898350    1.416197
C     -1.327309    0.243216    1.051602
C     -0.873187    0.081558   -0.355981
C     -1.451066    0.505767   -1.635082
C     -2.635486    1.213556   -1.985302
C     -2.964290    1.497953   -3.317870
C     -2.133800    1.092231   -4.344949
C     -0.963816    0.397165   -4.056457
C     -0.637960    0.113646   -2.712311
S      0.759062   -0.729092   -2.188372
C      0.320846   -0.590883   -0.580321
N      1.567877   -1.536516    2.604553
C      2.559321   -2.052212    1.818795
C      3.712465   -2.745671    2.221048
C      4.611073   -3.194703    1.250849
C      4.365823   -2.957299   -0.098292
C      3.221211   -2.267438   -0.519046
C      2.319535   -1.817410    0.462170
H     -0.290531   -0.580466    4.226265
H     -2.391146    0.589072    4.810388
H     -3.813019    1.536718    3.013671
H     -3.175070    1.334325    0.689395
H     -3.332757    1.562164   -1.235103
H     -3.879354    2.041485   -3.542048
H     -2.391689    1.314401   -5.377333
H     -0.307765    0.076219   -4.861538
H      3.893413   -2.925037    3.275491
H      5.505954   -3.732257    1.554365
H      5.075852   -3.313714   -0.842313
H      3.065330   -2.102181   -1.578238
