39

C      1.114738    1.574229    4.103486
C      0.522147    1.305240    5.468573
C     -0.605925    0.579300    5.402589
C     -0.861450    0.303527    4.001156
N     -1.905775   -0.399295    3.553293
C     -1.946613   -0.533015    2.204633
C     -1.002505   -0.003392    1.302204
C     -1.106841   -0.182347   -0.092581
C     -0.159258    0.350532   -0.980953
C     -0.290700    0.152356   -2.383423
C      0.605387    0.648324   -3.366537
C      0.434491    0.424188   -4.798030
C      1.443225   -0.023309   -5.667719
N      1.358845   -0.269773   -7.018578
C      0.190273   -0.068201   -7.689854
C     -0.921061    0.389726   -6.957996
N     -2.146924    0.642751   -7.444135
S     -3.061059    1.164452   -6.162738
N     -1.950997    1.074040   -4.934252
C     -0.796139    0.640219   -5.475205
C      1.706119    1.393746   -2.851968
N      2.687602    1.968620   -3.570512
S      3.704099    2.715736   -2.498004
N      2.964487    2.342665   -1.064469
C      1.870547    1.618948   -1.365546
C      0.921636    1.086223   -0.430347
C      1.038803    1.273154    0.963767
C      0.080496    0.730700    1.833757
C      0.133456    0.875775    3.216202
H      2.112820    1.134372    4.021454
H      1.145205    2.648442    3.899744
H      0.966746    1.663225    6.386511
H     -1.236592    0.241232    6.206796
H     -2.798862   -1.105054    1.844138
H     -1.950055   -0.749532   -0.486726
H     -1.149062   -0.428048   -2.733289
H      2.440547   -0.226030   -5.272492
H      0.174139   -0.269841   -8.752479
H      1.878965    1.842677    1.356862
