44

O      0.923983   -5.327783   -3.871036
N      1.980967   -4.949858   -3.344767
O      3.046742   -5.582018   -3.380293
C      1.969880   -3.666130   -2.633228
C      3.138360   -3.207241   -2.012613
C      3.121224   -1.986209   -1.335329
C      1.946762   -1.218920   -1.274319
C      1.933814    0.106583   -0.536211
N      2.165736   -0.021472    0.903686
C      2.579128    1.233004    1.560127
C      1.966362    2.577535    1.105637
O      0.662852    2.773781    1.650300
C     -0.026080    3.878226    1.053176
C     -0.780543    3.465310   -0.217469
O     -2.164018    3.230848    0.066764
C     -2.580482    1.866804   -0.062393
C     -2.116240    0.997834    1.105452
O     -0.863325    0.385446    0.783355
C     -0.216982   -0.108562    1.957214
C      1.128283   -0.775401    1.628695
C      0.782774   -1.693874   -1.898925
C      0.789481   -2.913927   -2.578655
H      4.060416   -3.783579   -2.041463
H      4.024132   -1.632018   -0.840448
H      1.009984    0.648694   -0.758055
H      2.742241    0.700107   -0.985522
H      2.473588    1.135834    2.648093
H      3.659044    1.312465    1.378321
H      2.604102    3.385525    1.485105
H      1.955642    2.666402    0.014731
H     -0.728186    4.259473    1.801921
H      0.692743    4.676013    0.831784
H     -0.769506    4.314068   -0.909547
H     -0.320497    2.614359   -0.727798
H     -3.675067    1.897509   -0.054245
H     -2.263497    1.468098   -1.032738
H     -2.031979    1.601987    2.015967
H     -2.836957    0.190062    1.272137
H     -0.868713   -0.856070    2.426394
H     -0.069792    0.696050    2.684288
H      0.918243   -1.708900    1.093553
H      1.568723   -1.104594    2.579332
H     -0.138831   -1.116028   -1.845257
H     -0.126525   -3.261433   -3.051436
