49

C     -1.798483   -2.121177   -7.805944
C     -1.503044   -1.382259   -6.532638
C     -1.607979    0.025667   -6.490866
C     -1.368592    0.747606   -5.310188
C     -1.030521    0.059130   -4.154619
C     -0.947258   -1.343242   -4.224817
C     -1.176667   -2.085372   -5.369559
C     -0.740814    0.589147   -2.820181
C     -0.731554    1.905900   -2.389005
C     -0.423855    2.183006   -1.045380
C     -0.119780    1.159596   -0.112943
C      0.195784    1.488983    1.286250
C     -0.707253    2.245185    2.074478
C     -0.459660    2.591545    3.427409
C     -1.489652    3.417106    4.136307
C      0.739824    2.158800    3.984887
N      1.293712    2.331285    5.276853
C      0.676588    2.944687    6.427091
C     -0.138326    1.949969    7.239487
C      1.623177    1.414682    3.190868
C      2.795995    1.085111    3.995231
C      2.527611    1.694431    5.381296
O      3.266457    1.598531    6.338476
O      3.771167    0.462490    3.643051
C      1.390917    1.066057    1.871237
C     -0.126416   -0.170976   -0.551978
C     -0.436286   -0.409823   -1.880099
S     -0.516207   -1.991631   -2.647181
O      0.822338   -2.534887   -2.717904
O     -1.656190   -2.702448   -2.110554
H     -1.497782   -1.530282   -8.677437
H     -2.869511   -2.335029   -7.873835
H     -1.245764   -3.065629   -7.847454
H     -1.879771    0.572160   -7.393408
H     -1.454270    1.830048   -5.320600
H     -1.102546   -3.168417   -5.355035
H     -0.953624    2.725344   -3.066331
H     -0.409567    3.224520   -0.723959
H     -1.644173    2.566822    1.615083
H     -2.380330    3.568836    3.516122
H     -1.829730    2.921705    5.048333
H     -1.089516    4.408891    4.366353
H      0.080568    3.808491    6.131055
H      1.473507    3.336982    7.071107
H      0.496901    1.142919    7.619921
H     -0.602730    2.448685    8.095651
H     -0.928268    1.489714    6.638674
H      2.130041    0.490792    1.319942
H      0.091483   -0.997706    0.118241
