47

C     -3.111546   -2.540905    0.372738
C     -3.762043   -1.211121    0.143157
C     -2.830484   -0.273309   -0.103264
C     -2.997256    1.138584   -0.486584
C     -1.867456    1.830582   -0.787662
C     -0.589440    1.191975   -0.673598
S      0.848989    1.980901   -1.116680
C      1.820345    0.631992   -0.728766
C      1.064464   -0.320088   -0.039004
C     -0.339606   -0.097976   -0.220706
C     -1.500194   -0.902779    0.015167
C     -1.657216   -2.217372    0.225909
C      1.768636   -1.342933    0.690142
C      1.271852   -2.113516    1.679725
Si     2.550139   -3.243883    2.408495
C      3.804463   -2.426718    1.298363
C      3.243960   -1.480782    0.510823
C      4.009558   -0.562158   -0.388217
C      5.416509   -0.773029   -0.615727
C      6.226084    0.036921   -1.433675
C      5.502865    1.065080   -2.026520
C      6.114117    1.945216   -2.885404
S      4.994658    3.076979   -3.508998
C      3.694250    2.374894   -2.626103
C      4.084038    1.315820   -1.836670
C      3.270085    0.522154   -0.988222
C     -4.295331    1.855772   -0.609307
N     -5.383133    1.143561   -0.915755
C     -6.504255    1.851355   -1.023949
N     -6.622309    3.164475   -0.854596
C     -5.477844    3.770092   -0.555203
N     -4.291911    3.182353   -0.423319
H     -3.430291   -3.267536   -0.380386
H     -3.333281   -2.924784    1.372667
H     -4.832365   -1.076416    0.126380
H     -1.902255    2.869532   -1.104760
H     -0.878699   -2.961524    0.259147
H      0.274389   -2.097991    2.084379
H      2.805415   -2.975619    3.843725
H      2.322168   -4.665306    2.053867
H      4.842138   -2.697130    1.393599
H      5.915064   -1.614937   -0.138643
H      7.281187   -0.153978   -1.580767
H      7.150246    1.984977   -3.192596
H      2.725704    2.819657   -2.776895
H     -7.407346    1.304834   -1.273778
H     -5.513319    4.843913   -0.405746
