45

O     -0.251346   -3.297019    0.942791
C     -0.198508   -2.075097    0.840449
N      0.417665   -1.375441   -0.181703
C      1.085648   -1.945492   -1.275752
N      1.173150   -3.275802   -1.415096
C      1.812263   -3.749846   -2.501524
N      2.377595   -3.020695   -3.475913
C      2.274979   -1.703948   -3.287163
C      1.647848   -1.109552   -2.208399
C      1.677241    0.375513   -2.325288
C      2.789756    0.575862   -3.366196
C      2.784765   -0.674080   -4.254343
C     -0.852091   -1.163287    1.904457
C     -1.950263   -0.272601    1.271616
C     -2.606624    0.619136    2.340506
C     -3.247165   -0.267315    3.419874
C     -2.174573   -1.146931    4.080793
C     -1.103878   -0.250674    4.722143
C     -0.451064    0.635879    3.650239
C     -1.530756    1.508358    2.987261
C      0.205341   -0.255850    2.581374
C     -1.516322   -2.030194    3.008716
H      0.390249   -0.369652   -0.150801
H      1.870450   -4.828889   -2.595859
H      0.716619    0.745442   -2.698282
H      1.929469    0.871648   -1.383912
H      3.757145    0.646155   -2.849372
H      2.663941    1.498837   -3.940709
H      2.083532   -0.567463   -5.088038
H      3.782897   -0.914022   -4.629804
H     -1.535297    0.366057    0.482402
H     -2.710445   -0.899826    0.787826
H     -3.374612    1.247349    1.875514
H     -4.026595   -0.897214    2.973823
H     -3.737298    0.357964    4.176218
H     -2.635964   -1.778411    4.848226
H     -0.341809   -0.868607    5.212708
H     -1.556441    0.374893    5.501318
H      0.308271    1.275954    4.113261
H     -1.075051    2.156922    2.228972
H     -1.990051    2.166875    3.734752
H      0.992010   -0.871060    3.037454
H      0.707367    0.383490    1.845054
H     -0.769093   -2.682766    3.479653
H     -2.271103   -2.694418    2.567024
