44

Si     6.590497   -0.892753    3.536249
C      5.752975   -0.882518    1.834525
C      4.405414   -0.874235    1.937106
C      3.879015   -0.874661    3.277722
C      4.870934   -0.883942    4.306238
C      4.400385   -0.884584    5.579054
S      2.687801   -0.873475    5.544439
C      2.591114   -0.867861    3.790848
C      1.279483   -0.857588    3.153449
C      0.042730   -0.852625    3.776731
C     -1.077243   -0.842339    2.877278
C     -2.452032   -0.835058    3.142512
N     -3.363418   -0.825646    2.144795
C     -2.962365   -0.823157    0.867164
C     -3.913126   -0.813435   -0.139213
C     -3.576145   -0.810270   -1.506524
C     -4.593556   -0.800316   -2.464200
C     -4.295430   -0.796975   -3.823811
C     -2.970527   -0.803552   -4.266360
C     -2.702799   -0.799992   -5.645986
C     -1.395582   -0.806427   -6.124518
C     -0.339463   -0.816489   -5.226714
C     -0.593072   -0.820062   -3.851637
C     -1.909879   -0.813755   -3.324466
C     -2.221634   -0.817096   -1.916961
C     -1.254025   -0.826940   -0.884911
C     -1.615689   -0.829919    0.485735
C     -0.664347   -0.839699    1.546541
S      1.057062   -0.849590    1.459089
H      7.342987   -2.151797    3.760890
H      7.359104    0.355206    3.768043
H      6.336382   -0.883655    0.927654
H      3.780693   -0.867796    1.054611
H      4.938874   -0.890754    6.517190
H     -0.083461   -0.856122    4.852870
H     -2.852740   -0.836570    4.150945
H     -4.960230   -0.808178    0.160008
H     -5.638989   -0.794949   -2.161086
H     -5.117166   -0.789097   -4.537071
H     -3.519563   -0.792161   -6.365132
H     -1.205651   -0.803589   -7.194282
H      0.685089   -0.821577   -5.589503
H      0.271196   -0.827998   -3.193733
H     -0.198693   -0.832471   -1.137823
