43

C      0.664864   -0.200329    1.399313
C      0.375803   -0.128385    2.904651
C     -0.150124    1.063071    3.256198
C     -0.247651    1.846792    2.053863
C      0.218140    1.158134    0.916898
C      0.241204    1.690176   -0.415398
C      0.719839    0.946038   -1.501604
C      0.735817    1.485804   -2.810930
C      1.221258    0.743591   -3.941015
N      1.709988   -0.510940   -3.934788
S      2.121620   -0.870813   -5.501117
N      1.702958    0.540897   -6.266442
C      1.219837    1.357636   -5.317728
C      0.744156    2.670343   -5.530675
C      0.279666    3.355254   -4.392176
C      0.267563    2.804865   -3.080938
C     -0.212803    3.557881   -2.004369
C     -0.230141    3.021040   -0.693819
C     -0.694338    3.691407    0.475432
C     -1.208831    4.960831    0.584488
N     -1.519345    5.165770    1.915248
C     -1.211277    4.046223    2.660021
C     -0.699474    3.122265    1.787849
C      0.666586   -1.254620    3.761809
C      1.195264   -2.444976    3.396872
C      1.390346   -3.419014    4.460685
C      1.018579   -3.015051    5.687418
Si     0.342998   -1.267150    5.645295
H      0.073758   -0.989741    0.923628
H      1.734285   -0.341458    1.211485
H     -0.456590    1.417908    4.225105
H      1.089004   -0.066767   -1.349850
H      0.739468    3.119383   -6.516483
H     -0.091345    4.371285   -4.540474
H     -0.579349    4.568505   -2.166206
H     -1.388003    5.741666   -0.141134
H     -1.916762    6.017131    2.290629
H     -1.387700    4.024853    3.726517
H      1.474337   -2.707066    2.383375
H      1.808805   -4.395479    4.248898
H      1.079551   -3.580093    6.603796
H      1.209143   -0.312449    6.382287
H     -1.102963   -1.215846    5.979048
