37

O     -0.299203   -0.413155    1.634287
C     -1.291610   -0.505816    0.915503
C     -1.271514   -1.167533   -0.450373
C      0.064078   -1.840334   -0.745051
C      1.109503   -0.807394   -1.134563
N      1.294371   -0.596555   -2.399351
C      2.220089    0.350959   -2.786423
O      2.494710    0.552885   -3.965265
C      2.899773    1.177989   -1.753689
C      3.792188    2.197649   -2.100927
C      4.406681    2.943868   -1.095899
C      4.133448    2.665461    0.244551
C      3.242408    1.643447    0.585322
C      2.606494    0.905050   -0.414724
N      1.759867   -0.161406   -0.113919
N     -2.521664    0.009367    1.245739
C     -2.790512    0.559474    2.555462
C     -3.378760   -0.509613    3.397352
C     -2.854157   -1.371330    4.338300
C     -3.929666   -2.174438    4.787259
C     -5.038422   -1.755761    4.090041
O     -4.714042   -0.747461    3.240097
H     -2.061639   -1.927543   -0.464111
H     -1.506286   -0.410024   -1.206896
H     -0.057762   -2.538283   -1.581923
H      0.426675   -2.416420    0.113795
H      4.007868    2.405556   -3.146486
H      5.102932    3.737248   -1.357411
H      4.621570    3.241680    1.027329
H      3.051977    1.429538    1.634043
H      1.357600   -0.206587    0.824776
H     -3.328893   -0.264247    0.699781
H     -1.872853    0.953145    3.003574
H     -3.498146    1.384638    2.428610
H     -1.820193   -1.413651    4.653102
H     -3.901069   -2.963446    5.525571
H     -6.076445   -2.058183    4.082199
