33

N      3.016738    1.108486    0.096683
C      2.506563    1.228778   -1.211675
C      3.394072    1.571290   -2.242533
C      2.973599    1.608404   -3.572611
C      1.666170    1.264984   -3.895569
C      0.786279    0.867134   -2.888860
C      1.192647    0.820067   -1.540731
C      0.229631    0.361434   -0.522722
C      0.410501   -0.869794    0.123948
C     -0.489754   -1.329444    1.095078
C     -1.605846   -0.539418    1.431639
C     -1.776774    0.683928    0.779178
C     -0.884745    1.154957   -0.193806
N     -2.925052    1.252802    1.281150
C     -3.487806    0.441757    2.224383
N     -4.619003    0.728620    2.895123
C     -4.966237   -0.239074    3.774417
C     -4.267951   -1.418606    4.000409
C     -3.100376   -1.663563    3.276168
C     -2.692440   -0.690570    2.347345
H      2.290971    1.154143    0.808154
H      3.786406    1.739419    0.292482
H      4.428147    1.814049   -2.011842
H      3.672377    1.892276   -4.354875
H      1.335277    1.285492   -4.930434
H     -0.225111    0.569840   -3.160066
H      1.272133   -1.486965   -0.128571
H     -0.322930   -2.286836    1.579746
H     -1.045004    2.113654   -0.679505
H     -3.314690    2.140795    1.006529
H     -5.878156   -0.033084    4.330573
H     -4.626758   -2.137233    4.729277
H     -2.529099   -2.573276    3.425483
