37

C     -0.792264    4.667516    5.894015
S      0.299824    3.432238    6.340012
C      0.045397    2.583840    4.863668
C     -0.851219    3.203717    4.021285
C     -1.282243    2.773471    2.736709
C     -2.223204    3.710656    2.198819
C     -2.678436    4.908134    2.837309
C     -2.246952    5.322293    4.103300
C     -1.330399    4.430595    4.652831
C     -0.896259    1.568075    1.965766
C     -1.349128    1.192117    0.707632
C     -0.797594   -0.034665    0.204774
C     -1.019715   -0.706000   -1.000522
N     -0.388731   -1.867590   -1.283616
C      0.484520   -2.437628   -0.422113
C      0.757616   -1.820786    0.807853
C      1.660150   -2.423926    1.681328
N      2.292362   -3.578180    1.409196
C      2.024849   -4.161379    0.229810
C      2.668388   -5.352689   -0.066989
C      2.442837   -6.015723   -1.268325
C      1.556773   -5.448105   -2.155457
N      0.907553   -4.292833   -1.912311
C      1.129997   -3.643949   -0.733583
C      0.094752   -0.597455    1.109048
S      0.213372    0.389381    2.511816
H     -0.976324    5.494488    6.566261
H      0.603962    1.671579    4.753016
H     -2.653527    3.527873    1.214401
H     -3.400545    5.529406    2.306234
H     -2.599560    6.230466    4.574501
H     -2.064046    1.767043    0.132995
H     -1.698871   -0.339510   -1.763424
H      1.911112   -1.993568    2.646705
H      3.362372   -5.773398    0.656658
H      2.946747   -6.947117   -1.498950
H      1.334970   -5.913553   -3.111472
