22

C      1.533427    3.996961    2.461746
N      1.323115    2.955898    3.239816
C      1.052609    1.947824    2.351442
C      0.746543    0.597832    2.541623
C      0.521326   -0.172596    1.408870
O      0.211050   -1.495792    1.342697
C      0.096907   -1.749973   -0.009340
C     -0.257925   -3.177064   -0.576631
C     -0.475689   -4.259184    0.252837
S     -0.836960   -5.648801   -0.686482
C     -0.675154   -4.703493   -2.109134
N     -0.373525   -3.436687   -1.933428
N      0.312555   -0.688592   -0.772429
C      0.582499    0.317484    0.113532
C      0.888427    1.667196   -0.078414
C      1.113859    2.438762    1.053130
O      1.424840    3.764586    1.121698
H      1.780367    5.007877    2.755207
H      0.688205    0.172596    3.536464
H     -0.441277   -4.300220    1.332115
H     -0.814978   -5.132658   -3.092974
H      0.946597    2.091808   -1.073707
