78

C      5.197118    3.473591   -5.208365
C      4.135763    2.669278   -5.068166
C      2.991452    2.939347   -4.185755
C      3.139138    3.560535   -2.946562
C      2.032535    3.785828   -2.119544
C      0.750427    3.352924   -2.519644
C     -0.538323    3.440768   -1.917747
C     -1.002525    3.997561   -0.707181
C     -2.348373    3.865483   -0.347521
C     -3.237205    3.156477   -1.153617
C     -4.650340    2.971991   -0.787314
C     -5.178598    2.563051    0.379212
C     -4.440329    2.204086    1.544190
S     -3.320375    0.897329    1.518393
C     -2.900337    1.105933    3.158623
C     -1.913410    0.290643    3.818462
C     -2.053592   -0.343676    5.034807
C     -0.866669   -1.028682    5.431584
C      0.167525   -0.892550    4.520353
C      1.512926   -1.421304    4.651895
C      2.066280   -1.994341    5.782748
C      3.423247   -2.393521    5.599187
C      3.897268   -2.121308    4.329081
C      5.233007   -2.389103    3.829864
C      6.191633   -3.196862    4.421469
C      7.431671   -3.247879    3.701484
C      8.625801   -4.034618    4.122527
C      7.367845   -2.459817    2.571527
S      5.856335   -1.691469    2.389127
S      2.661281   -1.407541    3.376603
S     -0.350325    0.041069    3.172114
C     -3.650322    2.107197    3.738105
C     -4.545350    2.748160    2.818845
C     -5.455604    3.872303    3.198417
C     -2.795757    2.631493   -2.378420
C     -1.447212    2.803744   -2.763382
N     -0.744142    2.373104   -3.890610
C     -1.323148    1.726451   -5.023821
C     -0.695830    0.619558   -5.605485
C     -1.255638    0.000864   -6.729978
C     -2.443380    0.483124   -7.279590
O     -3.088387   -0.022895   -8.373906
C     -2.487268   -1.142517   -9.013644
C     -3.069862    1.584532   -6.691599
C     -2.518569    2.206039   -5.568221
C      0.609470    2.686013   -3.738270
C      1.720809    2.500914   -4.591775
H      6.002545    3.204005   -5.884322
H      5.291554    4.413683   -4.676842
H      4.086763    1.750636   -5.647845
H      4.118853    3.879057   -2.599250
H      2.166344    4.287804   -1.165239
H     -0.315761    4.513811   -0.041845
H     -2.681389    4.302139    0.590726
H     -5.342370    3.197165   -1.598097
H     -6.261739    2.522395    0.463317
H     -2.966360   -0.322417    5.617689
H     -0.785420   -1.585557    6.356019
H      1.535806   -2.115098    6.718694
H      4.020247   -2.846001    6.380866
H      6.019480   -3.742337    5.341200
H      9.300025   -3.405783    4.712814
H      9.174265   -4.410668    3.252438
H      8.332682   -4.894441    4.733565
H      8.141505   -2.297273    1.833812
H     -3.551698    2.389060    4.779673
H     -5.242102    4.760923    2.594787
H     -5.334251    4.144630    4.252017
H     -6.500931    3.586076    3.042764
H     -3.481341    2.065652   -3.002705
H      0.207897    0.195484   -5.175173
H     -0.740453   -0.858385   -7.145737
H     -1.492377   -0.891923   -9.399253
H     -2.447037   -2.005893   -8.340241
H     -3.113344   -1.415186   -9.868145
H     -3.992881    1.968572   -7.119000
H     -3.013223    3.085513   -5.164143
H      1.599967    2.040962   -5.568174
