23

C     -2.635734   -2.191002    1.949122
C     -2.205594   -1.954878    0.509451
C     -1.460823   -0.653681    0.353216
C     -2.151678    0.531551    0.075371
C     -1.461916    1.741213   -0.053432
C     -0.069098    1.790863    0.097560
C      0.653555    3.049148   -0.035551
N      2.021135    3.146770    0.105181
N      2.337960    4.420308   -0.077310
N      1.170153    5.024562   -0.315758
N      0.084196    4.238970   -0.305680
C      0.618436    0.603036    0.382335
C     -0.070737   -0.607142    0.511290
H     -1.771414   -2.229975    2.620770
H     -3.299058   -1.393810    2.301493
H     -3.173118   -3.140934    2.032513
H     -3.085434   -1.957252   -0.145482
H     -1.573477   -2.784705    0.170519
H     -3.233121    0.522979   -0.042391
H     -2.023392    2.647670   -0.271886
H      1.114075    6.023220   -0.494008
H      1.699582    0.607114    0.508606
H      0.487201   -1.513479    0.737068
