37

O      0.613266   -2.888139   -0.363124
C      0.670249   -2.100714    0.575872
C     -0.329646   -2.004229    1.584157
N     -1.471328   -2.740163    1.735977
C     -2.159480   -2.306142    2.854698
C     -3.368391   -2.755988    3.401086
C     -3.828457   -2.116781    4.556397
C     -3.104724   -1.077103    5.129705
F     -3.576962   -0.487980    6.237093
C     -1.902313   -0.631311    4.584181
C     -1.418553   -1.258626    3.422244
C     -0.282944   -1.097810    2.602185
N      0.755572   -0.178092    2.749249
C      1.666660   -0.283354    1.830936
N      1.696670   -1.179585    0.767401
C      2.806897   -1.144984   -0.173805
C      2.632125   -0.087921   -1.266296
C      1.504566   -0.419895   -2.243293
N      1.438155    0.539120   -3.328857
C      0.757090    1.723255   -3.320424
C      0.997227    2.275842   -4.557077
N      1.799542    1.456210   -5.308762
C      2.041747    0.413778   -4.546466
H     -1.764883   -3.488268    1.121061
H     -3.931615   -3.567628    2.951671
H     -4.760720   -2.428819    5.018484
H     -1.355382    0.181583    5.049205
H      2.532818    0.398581    1.859494
H      3.718416   -0.913861    0.390735
H      2.947428   -2.134239   -0.624033
H      2.453252    0.895363   -0.813266
H      3.576150   -0.007035   -1.820344
H      1.646605   -1.411538   -2.687699
H      0.528308   -0.407690   -1.746866
H      0.180322    2.066227   -2.473034
H      0.634908    3.218492   -4.946463
H      2.641608   -0.442937   -4.825097
