49

C     -1.551057   -1.579553    3.717572
C     -0.886348   -0.425458    3.040298
C     -0.897552   -0.613408    1.709521
C     -0.361152    0.256416    0.660396
C      0.277192    1.474778    0.932051
C      0.767887    2.260781   -0.110234
C      0.591060    1.775631   -1.397514
N     -0.018739    0.603262   -1.697078
C     -0.496119   -0.157961   -0.677999
C     -1.161396   -1.440477   -1.021189
C     -1.348522   -1.949248   -2.334398
C     -0.982023   -1.409061   -3.545845
N     -1.379951   -2.272925   -4.544092
C     -2.002216   -3.372386   -4.000762
C     -1.993712   -3.192804   -2.641983
C     -2.507885   -4.037929   -1.683758
C     -3.180744   -5.306189   -1.769024
C     -3.452584   -5.659552   -0.503883
C     -2.974762   -4.641349    0.513114
C     -2.349620   -3.580026   -0.357881
C     -1.710659   -2.342861   -0.007801
C     -1.556691   -1.882257    1.396175
C     -1.937041   -2.446219    2.557279
C      1.450008    3.525081    0.155240
S      0.847682    4.988525   -0.558838
C      2.053868    5.970188    0.187292
C      2.868760    5.186530    0.943343
Si     4.377228    5.458641    2.037037
C      4.400270    3.574400    2.366677
C      3.396900    2.945740    1.715440
C      2.546898    3.802059    0.938709
H     -2.432385   -1.255720    4.278734
H     -0.858275   -2.099659    4.385442
H     -0.473349    0.415384    3.574948
H      0.387927    1.822631    1.954940
H      0.953658    2.324947   -2.262614
H     -0.475290   -0.491162   -3.808670
H     -1.233342   -2.115564   -5.532388
H     -2.384638   -4.162871   -4.631216
H     -3.408034   -5.841576   -2.674772
H     -3.959240   -6.571716   -0.221649
H     -3.829164   -4.248243    1.071364
H     -2.236155   -5.100363    1.176397
H     -2.448673   -3.380560    2.704465
H      2.077908    7.038335    0.018771
H      4.091420    6.211258    3.283666
H      5.591596    5.884712    1.298394
H      5.154668    3.132163    2.997235
H      3.245519    1.873149    1.763632
