30

N     -0.818918    3.025758    1.311814
C     -0.403621    2.765085    0.260363
C      0.119651    2.481793   -1.033413
C      1.016979    3.340055   -1.632044
N      1.547978    3.135766   -2.855685
C      1.144958    2.025603   -3.489359
N      0.280537    1.122097   -3.006782
C     -0.222167    1.359520   -1.770066
C     -1.153239    0.340968   -1.290810
C     -2.533917    0.413108   -1.576708
C     -3.429575   -0.541859   -1.092133
C     -2.985228   -1.605690   -0.305958
C     -1.617325   -1.667020   -0.046547
O     -1.015620   -2.633241    0.696978
C      0.314512   -2.355512    0.712253
C      1.281791   -3.113831    1.369017
C      2.603717   -2.673498    1.261132
C      2.923323   -1.531617    0.524616
C      1.926845   -0.788152   -0.125319
C      0.584152   -1.206439   -0.024378
C     -0.682664   -0.745206   -0.512192
H      1.352053    4.249487   -1.137711
H      1.553761    1.841318   -4.477207
H     -2.915817    1.228638   -2.189664
H     -4.488453   -0.456674   -1.327888
H     -3.664254   -2.355140    0.083431
H      1.015073   -4.000538    1.931255
H      3.394828   -3.233518    1.755495
H      3.961675   -1.214793    0.449209
H      2.203270    0.086973   -0.704607
