40

C     -1.634728   -0.776911   -8.273165
C     -1.236490   -1.278619   -6.927302
C     -0.664891   -2.510072   -6.679947
S     -0.345897   -2.769489   -5.023398
C     -0.965488   -1.229361   -4.587045
C     -0.978416   -0.815795   -3.183766
C      0.121263   -0.987034   -2.315562
C      0.117211   -0.583003   -0.944933
C      1.258184   -0.779064   -0.093854
N      2.424381   -1.341550   -0.460055
S      3.408339   -1.327781    0.870180
N      2.410890   -0.618801    1.981817
C      1.246555   -0.347897    1.363064
C      0.094565    0.272877    1.929641
C      0.081905    0.685997    3.333015
C      0.525485    0.003929    4.451810
C      0.354771    0.734849    5.673128
C      0.753476    0.227659    7.016802
C     -0.217343    1.966112    5.426554
S     -0.536550    2.226315    3.770045
C     -1.005121    0.444373    1.061502
C     -1.001110    0.040451   -0.309189
C     -2.142026    0.236529   -1.160382
N     -3.308191    0.799185   -0.794310
S     -4.292053    0.785434   -2.124629
N     -3.294661    0.076138   -3.236127
C     -2.130381   -0.194845   -2.617305
C     -1.409639   -0.548110   -5.706183
H     -1.045036   -1.253738   -9.062918
H     -1.481311    0.304713   -8.346254
H     -2.692786   -0.989350   -8.456381
H     -0.418891   -3.280327   -7.398364
H      1.030529   -1.445152   -2.711792
H      0.961543   -0.987763    4.402612
H      0.381200    0.876973    7.815827
H      0.350099   -0.776601    7.182212
H      1.844404    0.180668    7.094652
H     -0.463451    2.736256    6.145018
H     -1.914355    0.902467    1.457810
H     -1.846921    0.443010   -5.657008
