39

C     -4.783690   -4.744928   -1.981489
C     -4.849943   -3.466039   -2.514971
C     -4.110976   -2.441913   -1.925304
C     -3.316775   -2.716429   -0.809187
C     -2.507721   -1.668571   -0.139049
C     -1.723079   -1.939954    0.983463
C     -0.978436   -0.916704    1.573020
C     -1.017759    0.371136    1.038779
C     -0.252058    1.465849    1.622502
C     -0.693877    2.126629    2.788802
C      0.027230    3.183433    3.347555
C      1.217532    3.623016    2.767295
C      1.641395    2.954401    1.620246
O      2.775791    3.249458    0.931125
C      2.848066    2.379494   -0.110432
C      3.870445    2.349605   -1.057234
C      3.773714    1.375119   -2.054358
C      2.701153    0.482394   -2.085112
C      1.686834    0.537546   -1.117632
C      1.758433    1.514494   -0.103464
C      0.960383    1.894098    1.026008
C     -1.829414    0.558515   -0.076166
N     -2.561089   -0.415846   -0.671085
N     -3.250514   -3.972904   -0.283914
C     -3.977727   -4.946713   -0.875999
H     -5.345733   -5.563812   -2.415709
H     -5.470183   -3.261232   -3.382766
H     -4.156334   -1.437001   -2.335394
H     -1.686576   -2.942553    1.400495
H     -0.364942   -1.135782    2.443819
H     -1.621946    1.812658    3.265573
H     -0.343586    3.672795    4.245789
H      1.791823    4.442047    3.183870
H      4.696575    3.048926   -1.015141
H      4.547887    1.311295   -2.816094
H      2.648806   -0.269836   -2.869760
H      0.865145   -0.171568   -1.160158
H     -1.914651    1.536018   -0.545862
H     -3.891185   -5.929067   -0.420350
