39

C     -3.074943   -2.386320    2.358862
C     -4.288421   -1.729108    1.764244
C     -3.903544   -0.665959    1.046630
C     -4.698989    0.287473    0.316639
C     -4.055796    1.293819   -0.306856
C     -2.594580    1.427906   -0.269937
C     -1.782845    0.559753    0.386320
C     -0.377206    0.789173    0.314874
C      0.410420    1.916484    0.512186
C      1.739196    1.485349    0.279194
N      3.038593    1.930305    0.268649
C      3.847191    0.871552   -0.072763
C      5.217451    0.740791   -0.234053
C      6.363432    1.698813   -0.101337
C      7.524884    0.792645   -0.437781
C      7.142350   -0.464778   -0.717289
C      5.695160   -0.524477   -0.596256
C      4.817281   -1.577729   -0.777845
N      3.471260   -1.487933   -0.628551
C      3.044870   -0.252112   -0.279267
C      1.722494    0.166863   -0.049776
N      0.429781   -0.271041   -0.040248
C     -2.448507   -0.536023    1.091415
C     -1.952020   -1.520839    1.857567
H     -3.119399   -2.377618    3.451896
H     -2.968589   -3.414747    2.001520
H     -5.302490   -2.064920    1.914213
H     -5.777019    0.187896    0.287346
H     -4.609206    2.040488   -0.867779
H     -2.186014    2.265724   -0.829116
H      0.065449    2.901758    0.793743
H      3.311917    2.880206    0.482037
H      6.444674    2.082573    0.919307
H      6.281314    2.518908   -0.819868
H      8.550288    1.135044   -0.448289
H      7.772539   -1.297288   -0.985425
H      5.178379   -2.562320   -1.058845
H      0.159157   -1.220268   -0.267593
H     -0.913335   -1.677459    2.104087
