33

O      0.925308    0.703115    0.179637
C      0.304256    0.219178    1.115479
N     -0.742891    0.838836    1.742750
C     -1.199553    2.157828    1.374709
C     -2.044337    2.148421    0.100853
C     -3.356848    1.363486    0.256170
C     -4.163606    1.646106   -1.005111
S     -3.889285    3.374893   -1.350406
O     -4.977274    4.137999   -0.774185
O     -3.491109    3.516935   -2.734489
C     -2.452958    3.567980   -0.305991
O      0.519768   -1.014773    1.704258
C      1.578508   -1.741663    1.151479
C      2.898612   -1.370278    1.403687
C      3.934204   -2.145770    0.883850
C      3.643703   -3.287982    0.134001
C      2.317163   -3.660902   -0.095091
C      1.276802   -2.889410    0.421162
H     -1.166032    0.339085    2.513386
H     -1.770827    2.550186    2.223125
H     -0.321040    2.798715    1.235747
H     -1.472690    1.699487   -0.722659
H     -3.184879    0.289298    0.376972
H     -3.907165    1.716739    1.137185
H     -3.783160    1.069146   -1.853048
H     -5.230983    1.458963   -0.872349
H     -1.664894    4.082949   -0.860467
H     -2.752108    4.169162    0.558288
H      3.122262   -0.483966    1.989077
H      4.967911   -1.860633    1.061120
H      4.453482   -3.889426   -0.271854
H      2.096853   -4.553043   -0.675420
H      0.244909   -3.179655    0.251412
