40

C      2.866245   -5.698778    0.828246
N      2.317497   -5.650500   -0.437424
C      1.741916   -4.413311   -0.659271
C      1.876434   -3.723030    0.510267
C      2.630186   -4.482836    1.424613
C      3.120280   -4.131371    2.667864
C      2.841062   -2.788153    2.968020
C      2.083061   -1.949906    2.090262
S      1.768185   -0.265948    2.303545
C      0.811221   -0.144760    0.856396
C      0.709748   -1.413849    0.279028
C     -0.217509   -1.507813   -0.815057
C     -0.764101   -2.567552   -1.471885
O     -1.627683   -2.089420   -2.423226
C     -1.648282   -0.725820   -2.307144
C     -0.815402   -0.325160   -1.288531
C     -0.658959    0.987539   -0.814015
C     -1.243250    2.186718   -1.283071
C     -0.986463    3.400002   -0.627400
C     -0.145591    3.321134    0.487257
N      0.432449    2.187636    0.972928
C      0.179211    1.030211    0.319518
C     -1.564425    4.676414   -1.073203
N     -1.258841    5.777583   -0.378961
C     -1.814369    6.898066   -0.835191
N     -2.618883    6.999800   -1.888599
C     -2.852223    5.842853   -2.500369
N     -2.361459    4.656683   -2.147976
C      1.511496   -2.383312    0.896019
H      3.398550   -6.579811    1.160889
H      2.377434   -6.392732   -1.122676
H      1.357147   -4.173627   -1.637555
H      3.705880   -4.768925    3.315679
H      3.231087   -2.365324    3.892847
H     -0.717765   -3.642651   -1.404254
H     -2.319019   -0.219606   -2.987341
H     -1.896004    2.164667   -2.152278
H      0.106138    4.212610    1.060208
H     -1.589522    7.812980   -0.297240
H     -3.503347    5.867832   -3.367703
