40

O     -0.810343    5.040914    4.200449
C     -0.916719    4.943767    2.983319
C     -1.603422    6.001385    2.201489
C     -1.713626    5.841348    0.878472
N     -1.252797    4.753312    0.187255
C     -0.531400    3.741535    0.840297
C     -0.034866    2.640251    0.134329
C      0.653424    1.602488    0.791907
C      1.178535    0.453387    0.038622
C      2.547889    0.140403    0.067071
C      3.047905   -0.955156   -0.639669
C      2.177356   -1.750031   -1.388470
C      2.692620   -2.922021   -2.140491
O      3.885633   -3.207132   -2.111894
C      1.736753   -3.736244   -2.932628
C      2.187727   -4.840065   -3.663894
C      1.277282   -5.599193   -4.397554
C     -0.075899   -5.258958   -4.393709
C     -0.523955   -4.155098   -3.661510
C      0.380715   -3.371846   -2.938436
N     -0.065592   -2.291934   -2.160592
C      0.808321   -1.453331   -1.450809
C      0.319313   -0.362229   -0.722234
C      0.823613    1.686499    2.184993
C      0.315482    2.768533    2.906933
C     -0.363936    3.785496    2.234326
H     -1.978657    6.862334    2.736503
H     -2.195708    6.593409    0.260125
H     -1.215009    4.804031   -0.824286
H     -0.173559    2.589654   -0.943336
H      3.239584    0.754734    0.641389
H      4.109967   -1.187625   -0.603907
H      3.241785   -5.108218   -3.657742
H      1.622281   -6.459720   -4.965740
H     -0.785888   -5.859555   -4.957698
H     -1.584257   -3.917472   -3.660143
H     -0.991272   -1.935026   -2.358930
H     -0.747452   -0.148337   -0.730852
H      1.343595    0.894719    2.722290
H      0.445338    2.814704    3.985810
