26

C      1.051862    1.071602    1.766928
C      1.951161    2.140287    1.897520
C      2.769079    2.393334    0.798650
N      3.743972    3.316506    0.545133
N      4.265568    3.171564   -0.683723
N      3.646315    2.148244   -1.259816
C      2.726969    1.653420   -0.373619
C      1.822849    0.587655   -0.485014
C      0.970191    0.289219    0.597279
C      0.010598   -0.824841    0.505194
C     -1.366914   -0.604418    0.707053
C     -2.314712   -1.635572    0.627794
C     -1.819581   -2.904741    0.336944
N     -2.405514   -4.128917    0.178793
N     -1.504284   -5.085048   -0.098258
N     -0.309546   -4.507075   -0.131258
C     -0.474666   -3.173022    0.130333
C      0.457800   -2.129193    0.211726
H      0.405296    0.838282    2.613199
H      2.002169    2.727472    2.807834
H      4.097865    4.054578    1.140581
H      1.787716    0.015884   -1.407063
H     -1.721940    0.403998    0.920859
H     -3.371114   -1.444719    0.781582
H     -3.382776   -4.384585    0.243120
H      1.510365   -2.344776    0.056933
