32

C     -0.606665    0.532748    2.130037
C      0.015931   -0.458563    1.147137
C      1.346781   -1.014972    1.658428
N      0.116531    0.091948   -0.204755
C     -0.565512   -0.370788   -1.322999
C     -1.580679   -1.418941   -1.334645
C     -1.398676   -2.576324   -2.093533
C     -2.379816   -3.565475   -2.092518
C     -3.519904   -3.359552   -1.332267
N     -3.740871   -2.248443   -0.596535
C     -2.775539   -1.298055   -0.631854
N     -0.144483    0.248637   -2.409228
C      0.765587    1.183931   -1.992291
C      1.485729    2.126766   -2.732535
N      2.347009    2.975956   -2.113857
C      2.489552    2.888230   -0.772988
C      1.822248    1.985319    0.045685
C      0.943775    1.121347   -0.612475
H     -1.563236    0.910352    1.752835
H      0.041038    1.395096    2.312698
H     -0.793313    0.049534    3.095104
H     -0.659975   -1.317744    1.092030
H      1.783656   -1.710510    0.933387
H      2.081261   -0.228319    1.851401
H      1.196715   -1.559223    2.597241
H     -0.498059   -2.704004   -2.689802
H     -2.259095   -4.471466   -2.675843
H     -4.312243   -4.102260   -1.299674
H     -3.004804   -0.403747   -0.058810
H      1.387203    2.219240   -3.806585
H      3.192773    3.599499   -0.345573
H      1.986528    1.972388    1.113997
