36

C      0.274025    1.712551    1.523078
C      0.253486    0.499488    2.479041
C      0.321548    0.560747    3.858818
C      0.290096   -0.640695    4.572853
C      0.191840   -1.897545    3.926366
C      0.163012   -3.082668    4.678828
C      0.066541   -4.328869    4.057864
C     -0.002799   -4.410904    2.671899
C      0.024144   -3.246372    1.903079
C      0.121262   -1.976245    2.511070
C      0.154071   -0.764391    1.814889
C      0.106716   -0.426556    0.421089
N      0.016224   -1.044526   -0.786733
C      0.025630   -0.035693   -1.734077
C     -0.026851    0.212737   -3.119687
C      0.042706    1.600046   -3.223343
O      0.133692    2.180722   -1.968732
C      0.120271    1.154177   -1.090089
C      0.173518    0.937759    0.277946
C      0.029358    2.413984   -4.418446
N      0.101330    3.729992   -4.373937
C      0.068385    4.251005   -5.651398
C     -0.028797    3.326843   -6.667219
S     -0.081119    1.748243   -6.004543
H      1.217402    2.257216    1.606410
H     -0.593312    2.355101    1.691648
H      0.397185    1.510754    4.377514
H      0.343476   -0.595989    5.659670
H      0.216002   -3.044081    5.764937
H      0.045748   -5.234121    4.659059
H     -0.077932   -5.380922    2.187607
H     -0.031486   -3.341211    0.824763
H     -0.047262   -2.030362   -1.002771
H     -0.103662   -0.503133   -3.924382
H      0.118995    5.324798   -5.785133
H     -0.070189    3.498916   -7.732849
