28

C     -0.706918   -3.995363   -2.308039
C     -1.844927   -3.671484   -1.599096
N     -1.942919   -2.537475   -0.872335
C     -0.864362   -1.728209   -0.875289
C     -0.894946   -0.541739   -0.149999
C      0.195509    0.343064   -0.110935
C      0.135821    1.591995    0.668501
C     -0.241639    1.575055    2.027010
C     -0.310997    2.739611    2.806506
C      0.016662    3.930543    2.163047
N      0.068549    5.234552    2.567636
N      0.447342    6.053973    1.573308
N      0.649707    5.304490    0.496316
C      0.393926    4.001391    0.830624
C      0.456824    2.826648    0.067603
C      1.339672   -0.004208   -0.837782
C      1.383943   -1.193220   -1.571584
C      0.303277   -2.061784   -1.603669
N      0.383691   -3.199561   -2.321943
H     -0.638373   -4.908149   -2.888284
H     -2.715363   -4.317167   -1.594650
H     -1.808807   -0.301592    0.390477
H     -0.481231    0.625000    2.505763
H     -0.601544    2.703314    3.850757
H     -0.133501    5.631893    3.476438
H      0.741128    2.891030   -0.977869
H      2.215837    0.641963   -0.832626
H      2.282278   -1.448400   -2.128510
