42

N     -1.026769    0.743227   -2.997340
C     -1.694349    1.909563   -2.397363
C     -0.745875    3.136629   -2.377296
C      0.499749    3.005591   -1.523407
C      0.506375    3.465457   -0.199012
C      1.657501    3.361123    0.583685
C      2.815051    2.797545    0.051602
C      2.818948    2.328615   -1.260386
C      1.667545    2.430813   -2.043453
C     -2.294441    1.656052   -1.047664
N     -2.776710    2.576457   -0.213079
N     -3.222497    1.949170    0.944290
C     -3.016374    0.680103    0.749988
S     -3.282664   -0.777370    1.595921
C     -2.634103   -1.580673    0.156131
S     -2.506026   -3.307469    0.166860
C     -0.771428   -3.460359   -0.355475
C      0.188651   -2.811260    0.610600
C      0.799797   -1.588677    0.293232
C      1.654002   -0.967157    1.204125
C      1.914177   -1.561787    2.436565
C      1.320227   -2.779742    2.760614
C      0.461120   -3.402041    1.853665
N     -2.284105   -0.855239   -0.866903
N     -2.486392    0.429979   -0.469876
H     -1.666081   -0.052738   -3.000618
H     -0.804881    0.945263   -3.970081
H     -2.532752    2.164193   -3.059464
H     -0.434301    3.367751   -3.405810
H     -1.302729    4.025596   -2.049437
H     -0.388163    3.910523    0.234076
H      1.647880    3.723343    1.608363
H      3.711835    2.721036    0.660240
H      3.719010    1.883665   -1.676010
H      1.686960    2.058055   -3.064602
H     -0.653173   -3.045792   -1.363046
H     -0.530123   -4.526507   -0.435597
H      0.610052   -1.100580   -0.662311
H      2.112285   -0.014765    0.950619
H      2.578665   -1.074017    3.144863
H      1.522262   -3.242693    3.723117
H     -0.001655   -4.348297    2.126909
