41

C      1.061190    0.642223   -7.634810
C      0.352953   -0.379045   -8.258335
C     -0.492276   -1.194990   -7.506370
C     -0.632805   -1.000588   -6.123576
C      0.094462    0.018083   -5.485191
C      0.927557    0.842348   -6.259483
N     -0.033467    0.282609   -4.110313
C     -0.788155   -0.452639   -3.178495
C     -0.763950   -0.060176   -1.826095
C     -1.518793   -0.721298   -0.838332
C     -1.478635   -0.316447    0.582873
C     -0.307709    0.133243    1.196397
C     -0.411352    0.480354    2.544519
N      0.537175    0.945210    3.424473
C     -0.013707    1.160846    4.665413
C      0.563699    1.625320    5.845263
C     -0.303067    1.719243    6.923478
N     -1.615222    1.399362    6.892832
C     -2.153758    0.948929    5.732547
C     -1.363455    0.817867    4.583340
C     -1.612243    0.385223    3.243424
C     -2.738532   -0.079866    2.558775
N     -2.656609   -0.426744    1.249799
C     -2.332752   -1.784946   -1.256006
C     -2.381393   -2.179547   -2.595882
C     -1.615670   -1.518259   -3.562623
S     -1.746162   -2.086955   -5.248544
H      1.713669    1.287144   -8.217747
H      0.451068   -0.538518   -9.328996
H     -1.046852   -1.984932   -8.008217
H      1.480662    1.653983   -5.794191
H      0.648467    0.920308   -3.723826
H     -0.156934    0.797152   -1.544900
H      0.634813    0.192328    0.667105
H      1.506657    1.107302    3.192104
H      1.608569    1.894700    5.925126
H      0.055336    2.071878    7.887596
H     -3.209618    0.704690    5.757311
H     -3.712559   -0.188529    3.022065
H     -2.944856   -2.316687   -0.528348
H     -3.029791   -3.006722   -2.876228
