34

C      1.746859    1.964763    0.811987
Si     1.300324    0.713286   -0.467024
C      1.244953    1.377487   -2.187216
C      2.326393   -0.900665   -0.323495
C      3.669238   -1.256111   -0.479745
C      3.811913   -2.612895   -0.236966
S      2.316214   -3.389798    0.167168
C      1.480556   -1.935153    0.022943
C      0.095783   -1.610529    0.192202
S     -1.233830   -2.555930    0.601357
C     -2.294928   -1.185183    0.519934
C     -3.714672   -1.367272    0.771192
C     -4.703686   -1.148669   -0.213598
C     -6.091115   -1.315565    0.033072
C     -6.605546   -1.705395    1.283504
C     -5.636644   -1.915652    2.283844
N     -5.812785   -2.276667    3.560065
O     -4.545216   -2.334343    4.112218
N     -3.566495   -2.004861    3.193304
C     -4.205769   -1.749533    2.041912
C     -1.625687   -0.020927    0.160688
C     -0.265370   -0.294833   -0.009415
H      1.027574    2.789514    0.826406
H      1.765516    1.524256    1.813795
H      2.736146    2.391424    0.619490
H      0.507933    2.181556   -2.276987
H      0.975600    0.599311   -2.908253
H      2.216425    1.783610   -2.485673
H      4.490848   -0.602936   -0.745694
H      4.718072   -3.201580   -0.273018
H     -4.391749   -0.849011   -1.215123
H     -6.789727   -1.135058   -0.784850
H     -7.664616   -1.831488    1.468552
H     -2.108867    0.942030    0.048766
