44

Si    -3.574838    2.371440   -1.005638
C     -2.090203    2.801911   -2.048050
C     -1.005944    2.086498   -1.681519
C      0.325476    2.164538   -2.296610
C      1.273868    1.331004   -1.807695
C      1.033686    0.394056   -0.712638
C     -0.159867    0.272838   -0.085009
C     -0.251230   -0.664958    0.978664
S     -0.083253   -2.381272    0.814577
C     -0.348304   -2.696072    2.513278
C     -0.354565   -4.020068    3.081280
C     -1.106700   -4.456632    4.158048
C     -0.870404   -5.825392    4.481465
C      0.059482   -6.396224    3.644224
S      0.637604   -5.287714    2.480479
C     -0.554301   -1.495639    3.109565
C     -0.805663   -0.936540    4.378029
C     -0.882008    0.444258    4.161872
O     -0.695238    0.822119    2.846925
C     -0.500489   -0.401489    2.277586
C     -1.250483    1.132465   -0.564443
C     -2.516162    1.137908   -0.095662
C      0.705926    3.046440   -3.343512
S      0.785652    4.776723   -3.202470
C      1.306436    4.997665   -4.850405
C      1.398168    3.776465   -5.417415
C      1.735019    3.175072   -6.639801
C      1.574725    1.800432   -6.421313
O      1.159228    1.472351   -5.143640
C      1.074141    2.719793   -4.600760
H     -4.010652    3.497335   -0.144458
H     -4.652106    1.724265   -1.792986
H     -2.158636    3.535635   -2.834801
H      2.284309    1.331055   -2.210693
H      1.892387   -0.202461   -0.413005
H     -1.810822   -3.828913    4.690148
H     -1.359819   -6.362198    5.284901
H      0.428519   -7.412652    3.656877
H     -0.911268   -1.434247    5.330908
H     -1.055495    1.274476    4.834228
H     -2.924360    0.533065    0.697978
H      1.498483    5.981656   -5.253220
H      2.050974    3.639516   -7.562584
H      1.715406    0.943447   -7.067189
