44

C      1.588194    2.963219    2.484801
O      0.622933    2.594981    1.507896
C      0.320471    3.525945    0.548820
C      0.721611    4.865604    0.587857
C      0.363451    5.743120   -0.438709
C     -0.397177    5.289974   -1.511676
C     -0.807382    3.959377   -1.557189
C     -0.463164    3.068480   -0.526641
C     -0.911479    1.624817   -0.613404
C      0.181796    0.702421   -1.144634
O      0.723086    0.943427   -2.228325
N      0.516381   -0.424897   -0.410334
C      1.507912   -1.365407   -0.946484
C      1.059202   -2.827352   -0.766331
N      0.738731   -3.153059    0.646720
C     -0.310366   -4.084588    0.762310
C     -0.195699   -5.332577    0.142948
C     -1.228468   -6.263167    0.248227
C     -2.359524   -5.935246    0.977329
C     -2.401090   -4.688958    1.573577
N     -1.410868   -3.771978    1.481870
C      0.623240   -1.987802    1.547469
C     -0.095180   -0.806969    0.872965
H      2.532140    3.264712    2.018593
H      1.789151    2.082217    3.102038
H      1.200541    3.748048    3.142637
H      1.313452    5.261764    1.405782
H      0.684256    6.780942   -0.402272
H     -0.665960    5.968966   -2.316490
H     -1.387651    3.613331   -2.410050
H     -1.759216    1.535416   -1.304784
H     -1.311208    1.316702    0.354163
H      1.700756   -1.173598   -2.006490
H      2.446091   -1.183836   -0.408188
H      0.181855   -2.982872   -1.409968
H      1.855873   -3.493887   -1.116016
H      0.703394   -5.590617   -0.406409
H     -1.140913   -7.234331   -0.229719
H     -3.182298   -6.632189    1.085079
H     -3.259802   -4.380458    2.162758
H      1.643867   -1.674785    1.805188
H      0.153848   -2.235287    2.507362
H     -1.143158   -1.054988    0.670225
H     -0.072477    0.053320    1.546894
