43

C     -4.615583   -1.507532   -0.088946
C     -4.448038   -1.479353   -1.576564
C     -3.251042   -0.952226   -1.882750
C     -2.734749   -0.546487   -3.189760
C     -3.341720   -0.876182   -4.404827
C     -2.798638   -0.402173   -5.594137
C     -1.666570    0.389090   -5.528096
N     -1.050658    0.723024   -4.375522
C     -1.578635    0.257135   -3.206606
C     -0.843690    0.589311   -1.942545
N      0.199501    1.451419   -2.065503
C      0.930591    1.728894   -0.967163
C      0.775275    1.127795    0.275254
C      1.666679    1.497671    1.340908
C      1.697566    0.930352    2.643251
C      2.617262    1.382682    3.687644
N      3.771668    1.925538    3.282911
C      4.561719    2.354956    4.264022
N      4.293797    2.300757    5.564893
C      3.113809    1.757391    5.846952
N      2.236896    1.284518    4.964312
C      0.782864   -0.134874    2.722622
C      0.692019   -0.987198    3.802178
S     -0.400554   -2.274917    3.525157
C     -0.744057   -1.718921    1.943116
C     -0.139904   -0.514368    1.656917
C     -0.270184    0.160380    0.391663
C     -1.187845    0.001509   -0.702726
C     -2.514754   -0.650504   -0.657191
C     -3.332011   -0.892313    0.383532
H     -5.474602   -0.904131    0.218918
H     -4.728631   -2.529739    0.283082
H     -5.229014   -1.756529   -2.267621
H     -4.233175   -1.494685   -4.438077
H     -3.250272   -0.641041   -6.550433
H     -1.205874    0.787122   -6.427768
H      1.710919    2.466726   -1.143829
H      2.393408    2.290013    1.134628
H      5.511561    2.791930    3.974838
H      2.839520    1.693356    6.894568
H      1.229160   -0.967934    4.739721
H     -1.369370   -2.337294    1.317183
H     -3.146275   -0.661191    1.421261
