29

C      5.440302   -1.377017    2.481642
C      5.345131   -0.521989    3.555581
S      3.816352    0.247949    3.542532
C      3.392887   -0.614029    2.107086
N      4.331593   -1.427277    1.661704
C      2.110318   -0.453888    1.449236
C      1.058198    0.367691    1.828687
C     -0.029308    0.243152    0.924235
N     -1.287083    0.773322    0.775951
C     -1.866310    0.227759   -0.343936
C     -3.124775    0.449425   -0.903486
C     -3.501287   -0.233837   -2.069047
C     -4.668275   -0.248731   -2.881484
C     -4.450586   -1.134337   -3.912921
N     -3.194036   -1.658355   -3.757285
C     -2.594913   -1.125056   -2.640212
C     -1.336196   -1.351359   -2.086667
C     -0.966063   -0.666309   -0.923062
C      0.193996   -0.633587   -0.091597
S      1.760832   -1.355958    0.010656
H      6.300089   -1.992441    2.246081
H      6.078233   -0.319785    4.322765
H      1.060516    1.016942    2.694803
H     -1.692200    1.452977    1.405842
H     -3.818494    1.148119   -0.444253
H     -5.570104    0.328204   -2.725730
H     -5.078221   -1.435738   -4.740547
H     -2.763652   -2.337574   -4.369434
H     -0.643217   -2.050287   -2.546714
