34

C     -4.551344    0.629444    7.240791
C     -3.838046    0.516295    6.281207
C     -2.989918    0.375068    5.139818
C     -1.730168   -0.218044    5.179366
C     -1.162124   -0.206627    3.878652
C     -2.009851    0.374565    2.999658
S     -3.470410    0.944931    3.567773
C     -1.456749    0.365150    1.770630
S     -1.997495    0.916970    0.292486
C     -0.500204    0.339324   -0.379507
C     -0.199012    0.467638   -1.769404
C      0.071862    0.562995   -2.935538
C      0.411197    0.668858   -4.315407
C      0.306164    1.877865   -5.028112
C      0.654526    1.992409   -6.394567
C      1.133421    0.912191   -7.157932
C      1.254542   -0.330064   -6.486500
N      1.689709   -1.475991   -7.032770
S      1.636977   -2.619249   -5.829188
N      1.069693   -1.714186   -4.559853
C      0.886608   -0.464769   -5.026395
C      0.357975   -0.252444    0.543306
C     -0.239744   -0.221155    1.829926
N     -0.064235   -0.566814    3.143240
C      1.092009   -1.246470    3.662421
H     -5.187817    0.731084    8.088784
H     -1.270756   -0.625170    6.070602
H     -0.055271    2.766843   -4.510557
H      0.551103    2.965407   -6.877967
H      1.397801    1.016908   -8.203591
H      1.326493   -0.669859    0.300512
H      0.975959   -2.316655    3.472131
H      1.986089   -0.865434    3.161029
H      1.173684   -1.060657    4.736253
