44

C      6.785602   -1.862306   -1.577632
C      5.516014   -2.070580   -0.771573
O      4.412232   -1.658258   -1.575247
C      3.167036   -1.768319   -1.023072
C      2.869192   -2.247896    0.248015
C      1.537408   -2.304230    0.682649
C      0.472499   -1.911017   -0.141083
N     -0.817484   -1.937069    0.389010
C     -1.998848   -1.796090   -0.455043
C     -2.440103   -0.327657   -0.554334
C     -2.822243    0.253443    0.819209
C     -3.943296    1.283371    0.728812
O     -3.826441    2.051127   -0.462227
C     -4.038287    1.302602   -1.669939
C     -5.518221    1.403206   -2.057373
C     -3.195586    1.999153   -2.746779
C     -3.616047   -0.177424   -1.526714
C      0.794693   -1.395739   -1.398663
C      2.123033   -1.338411   -1.839937
H      6.893219   -0.810415   -1.862465
H      7.665943   -2.164718   -1.003601
H      6.752319   -2.442134   -2.506005
H      5.425109   -3.132607   -0.515882
H      5.569007   -1.466149    0.141334
H      3.641763   -2.577756    0.933440
H      1.337534   -2.661061    1.690383
H     -0.921428   -2.651848    1.104712
H     -1.835998   -2.234612   -1.447027
H     -2.809294   -2.382740   -0.003621
H     -1.603201    0.266063   -0.942598
H     -1.930065    0.729769    1.245694
H     -3.119709   -0.528247    1.528172
H     -4.927316    0.801794    0.765315
H     -3.890545    1.965787    1.583377
H     -5.827651    2.450840   -2.146976
H     -6.160185    0.958552   -1.289129
H     -5.719917    0.897842   -3.007600
H     -3.482462    3.052690   -2.845454
H     -3.308532    1.518462   -3.724075
H     -2.133090    1.995901   -2.479858
H     -4.458164   -0.769711   -1.142320
H     -3.372537   -0.603644   -2.507872
H      0.026339   -1.025202   -2.068814
H      2.341671   -0.943391   -2.828876
