33

C      2.504009    1.769448   -2.067614
N      1.938741    0.656473   -1.338671
N      2.715744   -0.434616   -1.150057
C      1.912786   -1.327716   -0.553672
C      0.612159   -0.743583   -0.350237
C     -0.482946   -1.365020    0.251550
C     -0.194883   -2.687568    0.656903
O     -1.269689   -3.309491    1.251507
C     -1.101339   -4.661656    1.654677
C      1.085832   -3.297131    0.466607
C      2.183412   -2.642359   -0.142771
C      0.663724    0.544144   -0.832845
C     -0.336762    1.567812   -0.863456
C     -0.216382    2.925226   -0.612019
C     -1.504708    3.497224   -0.759725
C     -2.347359    2.459698   -1.085488
O     -3.641724    2.312311   -1.346547
C     -4.415201    3.500878   -1.278731
O     -1.650321    1.296570   -1.144313
H      2.826310    2.522428   -1.344855
H      1.751998    2.174011   -2.748976
H      3.361666    1.421311   -2.650158
H     -1.453033   -0.908952    0.399048
H     -0.337578   -4.748262    2.434345
H     -2.049660   -5.003720    2.080343
H     -0.870973   -5.304337    0.798634
H      1.261654   -4.317510    0.798408
H      3.148610   -3.108766   -0.281066
H      0.690011    3.443696   -0.333468
H     -1.778901    4.533849   -0.632478
H     -5.453430    3.244990   -1.510060
H     -4.073127    4.233992   -2.017257
H     -4.387217    3.930094   -0.271307
