33

C     -4.614357    1.058162    0.283913
C     -4.246568    0.076013   -0.812312
O     -2.821331    0.010099   -0.959292
C     -2.265887    0.935879   -1.799277
O     -2.905965    1.795478   -2.394264
C     -0.827111    0.815659   -1.910969
C      0.023516    1.666462   -2.652788
N      1.310292    1.324256   -2.572406
N      1.297099    0.230773   -1.775116
C      2.543159   -0.494279   -1.547533
C      3.042400   -0.365591   -0.127329
C      3.328242   -1.513410    0.628137
C      3.801096   -1.401165    1.936728
C      4.002123   -0.143165    2.501123
C      3.736121    1.004200    1.756876
C      3.263906    0.894986    0.448285
C      0.031297   -0.107983   -1.339761
N     -0.207348   -1.165192   -0.522589
H     -4.119728    0.788798    1.222935
H     -4.286355    2.071239    0.030720
H     -5.695865    1.071563    0.445771
H     -4.736125    0.328290   -1.759903
H     -4.585229   -0.927534   -0.534547
H     -0.255178    2.526905   -3.249178
H      3.299381   -0.109789   -2.241948
H      2.348937   -1.539386   -1.815427
H      3.187278   -2.505148    0.202818
H      4.018656   -2.295441    2.515398
H      4.372666   -0.055958    3.519259
H      3.899258    1.986391    2.193424
H      3.066859    1.802433   -0.121880
H      0.499373   -1.436069    0.160456
H     -1.142552   -1.234367   -0.116547
