35

C      1.314294    3.885578   -0.740042
O      0.606761    2.706065   -0.347133
C      1.345696    1.583014   -0.594571
C      1.471499    1.144407   -1.918564
C      2.170561   -0.033457   -2.229947
C      2.284731   -0.458418   -3.667669
C      2.733996   -0.773416   -1.179956
Br     3.702829   -2.377336   -1.489332
C      2.592513   -0.351956    0.145233
C      1.878485    0.817450    0.441225
S      1.762864    1.324820    2.141935
O      1.798859    2.770331    2.203585
O      2.740318    0.549265    2.881300
N      0.233165    0.793286    2.640850
C      0.010259   -0.678419    2.691499
C     -1.274789   -0.968562    3.477153
O     -2.403766   -0.300170    2.891956
C     -2.195540    1.122160    2.892387
C     -0.952166    1.497113    2.076544
H      2.354202    3.872547   -0.394079
H      0.813580    4.743400   -0.281447
H      1.277065    4.012097   -1.826814
H      1.007002    1.724305   -2.714156
H      3.335348   -0.502916   -3.971761
H      1.814437   -1.435614   -3.816558
H      1.782875    0.249621   -4.336122
H      3.040960   -0.935831    0.947242
H      0.847552   -1.181079    3.184161
H     -0.089806   -1.062402    1.670101
H     -1.483391   -2.042905    3.465103
H     -1.178487   -0.656957    4.524105
H     -3.083550    1.586374    2.452169
H     -2.111865    1.471221    3.928517
H     -1.099595    1.181942    1.038416
H     -0.814665    2.581338    2.116626
