34

C      0.785611   -1.487206    4.189547
O      1.412731   -0.224438    4.004788
C      0.931804    0.574955    3.003527
C     -0.065413    0.221244    2.092924
C     -0.458420    1.137927    1.107146
S     -1.732797    0.695873   -0.047992
O     -2.296413   -0.575698    0.345398
O     -2.554573    1.866588   -0.256580
N     -0.854491    0.474900   -1.455937
C     -0.149257   -0.789120   -1.689566
C      1.048906   -0.545705   -2.600944
C      0.475128   -0.516834   -4.015343
C     -0.847198   -1.280034   -3.955452
C     -1.007457   -1.744048   -2.509805
C      0.117528    2.410235    1.028501
C      1.113696    2.761422    1.935558
C      1.513669    1.846235    2.908201
F      2.477480    2.210708    3.767622
H      0.934986   -2.131437    3.316912
H      1.259612   -1.973688    5.047464
H     -0.278931   -1.370914    4.418398
H     -0.545120   -0.751852    2.128172
H     -1.203613    1.012590   -2.248061
H      0.172233   -1.231857   -0.741965
H      1.751212   -1.384221   -2.515802
H      1.594878    0.373257   -2.364000
H      0.294516    0.516138   -4.334507
H      1.169800   -0.963171   -4.734220
H     -0.859691   -2.127398   -4.648492
H     -1.672521   -0.615861   -4.237166
H     -2.058692   -1.762262   -2.206397
H     -0.614236   -2.763724   -2.414367
H     -0.204842    3.120840    0.270637
H      1.581851    3.740313    1.898361
