35

C      2.671126   -1.578620    5.651529
C      1.826322   -0.895914    6.519651
C      0.817054   -0.081311    6.006329
C      0.639875    0.053444    4.620636
C      1.478263   -0.649383    3.738891
C      2.501632   -1.450488    4.271595
N      1.373099   -0.523017    2.342618
C      0.393845    0.196770    1.635227
C      0.418693    0.172286    0.228906
C     -0.502371    0.900031   -0.544531
C     -0.463637    0.850610   -2.015299
C     -0.552151   -0.381354   -2.694528
C     -0.521354   -0.474367   -4.093913
C     -0.397086    0.727424   -4.787341
N     -0.334037    1.044636   -6.114867
N     -0.211593    2.367599   -6.309865
N     -0.193183    2.945167   -5.114614
C     -0.306443    1.964016   -4.165959
C     -0.339539    2.037142   -2.766300
C     -1.454908    1.676959    0.126078
C     -1.483344    1.725525    1.522112
C     -0.561252    0.995096    2.282837
S     -0.670413    1.127668    4.058893
H      3.465639   -2.206756    6.046097
H      1.954635   -0.990010    7.594851
H      0.168779    0.453794    6.696806
H      3.180785   -1.982593    3.610576
H      1.897507   -1.198447    1.803270
H      1.181654   -0.415960   -0.277112
H     -0.662338   -1.301931   -2.120818
H     -0.595607   -1.431654   -4.598038
H     -0.366721    0.434269   -6.921677
H     -0.258985    3.005767   -2.283040
H     -2.190656    2.250763   -0.434516
H     -2.233680    2.342469    2.012042
