38

C      2.235556   -2.695204    1.962001
S      2.571299   -1.097140    1.177079
C      2.798118   -1.622733   -0.515220
N      3.373513   -2.849394   -0.655403
C      3.578823   -3.326391   -1.901241
C      3.241116   -2.636179   -3.047579
C      2.660255   -1.381382   -2.904211
C      2.428464   -0.855185   -1.621611
C      1.830631    0.494938   -1.503573
O      2.150512    1.354675   -0.704790
O      0.863255    0.628657   -2.452131
C      0.310514    1.943991   -2.567132
C     -0.792667    2.278288   -1.560604
O     -1.186403    3.425755   -1.371080
N     -1.350382    1.183210   -0.932503
C     -2.346447    1.330253    0.122340
C     -1.724123    1.803145    1.444525
C     -0.957206    0.618686    2.019082
S     -1.869421   -0.831277    1.509323
O     -2.588135   -1.374298    2.641894
O     -1.013505   -1.646604    0.668695
C     -3.025903    0.004703    0.443476
H      1.940416   -2.523891    3.000855
H      1.418501   -3.214573    1.453668
H      3.129234   -3.325143    1.960802
H      4.038800   -4.309717   -1.950833
H      3.429985   -3.060713   -4.027628
H      2.400170   -0.813728   -3.794578
H     -0.131825    2.017222   -3.566325
H      1.099769    2.702114   -2.500128
H     -0.879700    0.290338   -1.070043
H     -3.085449    2.059849   -0.227765
H     -1.070189    2.672648    1.325750
H     -2.525824    2.085814    2.138342
H     -0.893418    0.652739    3.108504
H      0.043254    0.558962    1.587287
H     -3.227817   -0.612301   -0.435145
H     -3.946339    0.162015    1.013899
