40

C     -2.129528   -2.902258   -2.443412
C     -2.983071   -2.390214   -1.312548
O     -4.161713   -2.090603   -1.489622
C     -2.371944   -2.229802    0.039516
C     -3.223332   -2.099090    1.141136
C     -2.692060   -1.948439    2.419130
C     -1.308346   -1.903226    2.599306
C     -0.435770   -1.998338    1.499942
N      0.967878   -1.894247    1.733393
N      1.456193   -2.009238    3.001043
N      2.774268   -1.938221    2.910007
N      3.169070   -1.744621    1.618718
C      2.067732   -1.700459    0.902582
S      2.076343   -1.341318   -0.793705
C      2.110387    0.476834   -0.734634
C      0.753487    1.001793   -0.295484
O      0.486891    1.110403    0.903363
N     -0.174309    1.296383   -1.268813
C     -0.021042    1.181074   -2.711431
C     -1.430777    1.360280   -3.257218
C     -2.076733    2.287693   -2.236479
C     -1.493471    1.800571   -0.918702
C     -0.980273   -2.187635    0.221852
H     -1.559218   -3.780300   -2.128572
H     -2.777556   -3.210014   -3.269931
H     -1.461612   -2.112712   -2.796242
H     -4.303824   -2.120737    1.008884
H     -3.354792   -1.852742    3.276411
H     -0.930020   -1.759388    3.611383
H      2.873551    0.828607   -0.032208
H      2.382627    0.867746   -1.718117
H      0.641562    1.987245   -3.044141
H      0.414471    0.218144   -2.989437
H     -1.441378    1.765648   -4.272522
H     -1.956434    0.398023   -3.265456
H     -1.764282    3.321606   -2.426405
H     -3.169257    2.250084   -2.253650
H     -1.425667    2.591634   -0.165898
H     -2.073657    0.967263   -0.508116
H     -0.347028   -2.317987   -0.643432
