43

C     -1.705961   -6.526615    2.083631
C     -0.441727   -6.369518    1.571421
C     -0.207677   -5.008221    1.302581
C      1.007563   -4.497441    0.763201
C      2.130972   -5.187845    0.416523
N      2.998266   -4.228303   -0.046166
C      2.403411   -2.976442    0.021675
C      1.128473   -3.117276    0.535868
C      0.162210   -2.128286    0.782480
C      0.317301   -0.737418    0.540484
N      1.342219    0.039131    0.040402
C      1.007130    1.382692   -0.004785
C     -0.282900    1.492051    0.482630
C     -0.671328    0.190392    0.803727
C     -1.901732   -0.271157    1.342555
C     -2.947792    0.552423    1.641789
S     -4.230191   -0.395998    2.264425
C     -3.316216   -1.855935    2.099696
C     -2.048586   -1.669114    1.582298
C     -1.077257   -2.678707    1.336421
C     -1.223320   -4.094110    1.578148
S     -2.540987   -5.042517    2.214499
C      1.909776    2.401285   -0.488904
S      3.495197    1.980975   -1.050557
C      3.903017    3.600772   -1.420780
C      2.870572    4.451987   -1.130476
N      2.950208    5.795991   -1.337039
C      1.793099    6.408305   -0.967046
C      0.669550    5.758023   -0.445137
N      0.567334    4.418754   -0.230411
C      1.715109    3.768408   -0.591818
H     -2.186048   -7.445605    2.390399
H      0.246416   -7.188722    1.410828
H      2.406197   -6.232677    0.445951
H      3.934531   -4.405918   -0.387075
H      2.982688   -2.133350   -0.313793
H      2.236193   -0.308500   -0.261844
H     -0.850383    2.407191    0.583776
H     -3.043937    1.623910    1.539197
H     -3.821361   -2.752149    2.413233
H      4.870594    3.852489   -1.829956
H      1.783588    7.486073   -1.104152
H     -0.214086    6.330297   -0.176264
