48

C     -3.400941   -3.267658    0.933513
C     -4.757663   -3.921543    1.221152
C     -5.772010   -3.212873    0.674045
C     -5.241118   -2.082650    0.005728
C     -5.747052   -1.040647   -0.706894
S     -4.452122   -0.026138   -1.235472
C     -3.231576   -1.013336   -0.479318
C     -3.834604   -2.081676    0.139322
C     -1.845019   -0.676456   -0.576918
C     -1.410589    0.352386    0.179470
C      0.000974    0.786664    0.205417
C      0.354156    1.856724    1.002614
N      1.608247    2.328604    1.108729
C      2.597504    1.736427    0.402198
C      2.356814    0.630570   -0.450376
N      3.366695    0.052924   -1.146184
C      4.624853    0.528547   -1.037073
C      4.997404    1.596069   -0.246377
C      6.376521    2.012605   -0.212017
C      6.870762    3.083334    0.554860
C      5.857487    3.695662    1.281160
C      6.114925    4.767166    2.100788
S      4.685560    5.318281    2.869142
C      3.726580    4.117040    2.098558
C      4.465105    3.302552    1.268670
C      3.939737    2.211822    0.492754
C      1.024642    0.158534   -0.541112
C      0.573936   -0.992290   -1.391527
C      1.332814   -1.755619   -2.207647
Si     0.344148   -3.064152   -3.089276
C     -1.160037   -2.423495   -2.207338
C     -0.863029   -1.387327   -1.393997
H     -2.905186   -2.975970    1.863493
H     -2.763154   -3.938664    0.351641
H     -4.869398   -4.832551    1.789997
H     -6.822336   -3.460766    0.732061
H     -6.772394   -0.806990   -0.954988
H     -2.103438    0.899204    0.815164
H     -0.378544    2.389384    1.603554
H      5.351696   -0.010929   -1.640481
H      7.101340    1.466861   -0.820273
H      7.913333    3.372442    0.559581
H      7.056186    5.262134    2.296698
H      2.668794    4.096343    2.315610
H      2.390487   -1.683688   -2.395928
H      0.281335   -2.848028   -4.554908
H      0.704352   -4.438012   -2.661710
H     -2.129888   -2.865463   -2.374814
