36

Si    -0.410051   -4.705960   -0.937219
C      0.962926   -5.992484   -0.803579
C      2.131252   -5.427216   -0.447640
C      2.089085   -3.986241   -0.252062
C      0.879349   -3.420632   -0.437530
C      0.561608   -2.008320   -0.345954
C      0.818945   -1.111669   -1.419247
C      0.490247    0.256783   -1.294487
N      0.624247    1.332232   -2.171208
C      0.138991    2.393382   -1.495847
C     -0.016169    3.688784   -1.758730
N      0.238607    4.489777   -2.797444
C     -0.185073    5.736815   -2.364298
C     -0.691479    5.668325   -1.062971
C     -0.564689    4.307170   -0.696376
N     -0.744803    3.329684    0.246653
C     -0.307816    2.130571   -0.245029
C     -0.079041    0.766048   -0.129608
C     -0.349540   -0.056209    0.985387
C     -0.887792    0.311403    2.181286
S     -0.982945   -1.082910    3.189066
C     -0.295807   -2.107442    1.975418
C     -0.004284   -1.424789    0.811844
H     -0.878743   -4.550349   -2.337425
H     -1.453934   -4.916991    0.096904
H      0.776552   -7.036856   -0.997081
H      3.052708   -5.979939   -0.311351
H      2.982171   -3.436327    0.019954
H      1.265911   -1.482254   -2.338651
H      1.001117    1.333142   -3.108519
H      0.646428    4.227985   -3.685182
H     -0.090637    6.587226   -3.027303
H     -1.088239    6.489227   -0.482168
H     -1.139933    3.476395    1.164328
H     -1.221457    1.276051    2.532825
H     -0.148408   -3.153458    2.205271
