41

C      1.781620   -0.286739   -4.775582
C      1.399643    0.314786   -3.457195
C      2.382035    0.694942   -2.545571
C      2.027896    1.228867   -1.303605
C      0.685954    1.406589   -0.947739
N      0.333515    1.891490    0.336955
C      0.976937    2.830085    1.104779
S      2.064347    4.000862    0.614896
N      0.640516    2.830603    2.430686
C      0.042331    1.748944    3.204674
C     -1.430377    1.983040    3.537641
S     -2.541974    1.652305    2.126053
C     -2.837422   -0.085223    2.388266
C     -3.958103   -0.490443    3.121148
C     -4.205861   -1.848759    3.333159
C     -3.336986   -2.802495    2.805796
Cl    -3.639326   -4.474212    3.066870
C     -2.224109   -2.409453    2.066394
C     -1.974705   -1.050503    1.857175
C     -0.315451    1.006930   -1.852113
C     -1.781769    1.151393   -1.556294
C      0.057353    0.454617   -3.094151
H      0.966565   -0.203054   -5.500601
H      2.646639    0.233339   -5.198631
H      2.027665   -1.344741   -4.648566
H      3.432877    0.573426   -2.789097
H      2.825669    1.467630   -0.607711
H     -0.635546    1.772643    0.605125
H      1.125067    3.551143    2.956177
H      0.212120    0.790535    2.706841
H      0.606676    1.721828    4.142331
H     -1.581833    3.023889    3.840201
H     -1.728343    1.353820    4.382368
H     -4.647850    0.245812    3.529591
H     -5.080051   -2.153321    3.901738
H     -1.548007   -3.152513    1.648897
H     -1.105031   -0.762863    1.271308
H     -2.000303    2.143197   -1.149844
H     -2.384935    1.046813   -2.465264
H     -2.102981    0.379882   -0.852964
H     -0.714217    0.141124   -3.794599
