33

C     -4.268245    0.420107   -5.757980
C     -4.127558    1.800189   -5.863572
C     -3.306489    2.506665   -4.979014
C     -2.628310    1.785668   -3.981933
S     -1.562208    2.357916   -2.762899
C     -1.348075    0.754638   -2.167079
C     -0.473818    0.451669   -1.009680
C      0.246259    1.431406   -0.307397
C      1.066420    1.106854    0.786620
C      1.177042   -0.233963    1.199020
C      0.459061   -1.202753    0.497125
C     -0.362298   -0.891389   -0.595701
N      0.731653   -2.416136    1.086463
C      1.593395   -2.255026    2.133428
N      2.046266   -3.259761    2.906085
C      2.889047   -2.836467    3.875744
C      3.278225   -1.520990    4.094821
C      2.777223   -0.518991    3.262418
C      1.896112   -0.902894    2.236679
N     -2.025532   -0.165790   -2.827985
C     -2.754130    0.403472   -3.857270
C     -3.587665   -0.286385   -4.760856
H     -4.910316   -0.115825   -6.453094
H     -4.662353    2.338265   -6.643634
H     -3.197306    3.583652   -5.062183
H      0.191971    2.480143   -0.589557
H      1.610241    1.889390    1.308299
H     -0.905965   -1.676648   -1.116641
H      0.359420   -3.308867    0.802304
H      3.270419   -3.629300    4.515520
H      3.961510   -1.278685    4.901567
H      3.059006    0.518677    3.403646
H     -3.693972   -1.363074   -4.674152
