24

C      0.010729    2.583968    4.024792
C     -1.048371    2.429290    3.158764
C     -0.683440    1.392774    2.261005
C     -1.273157    0.748346    1.166007
C     -0.558303   -0.260343    0.528827
O     -0.978105   -0.984227   -0.541679
C      0.018943   -1.865371   -0.853352
C     -0.067771   -2.872346   -2.015603
C     -1.126389   -3.060315   -2.917854
N     -0.859548   -4.026226   -3.802608
O      0.409068   -4.484133   -3.471210
C      0.873785   -3.787416   -2.400996
C      1.076597   -1.702020    0.021246
C      0.712130   -0.665327    0.919510
C      1.302787   -0.021665    2.014285
C      0.588593    0.987178    2.652064
O      1.009042    1.711867    3.723875
H      0.200865    3.236346    4.865834
H     -1.969333    2.994415    3.173598
H     -2.263069    1.023436    0.817174
H     -2.073775   -2.542960   -2.972828
H      1.858698   -4.065051   -2.058242
H      2.002483   -2.259137    0.018440
H      2.292579   -0.295286    2.364652
