43

O     -0.470102   -5.163265    1.489252
C     -1.818834   -4.887288    1.115841
C     -2.276903   -3.536105    1.686892
C     -3.749971   -3.276934    1.379251
N     -1.438137   -2.427777    1.218806
C     -1.107261   -2.216176   -0.217851
C     -0.494673   -0.873858   -0.148793
C     -0.548902   -0.394515    1.128052
N     -0.001040    0.839310    1.188309
C      0.140256    1.681060    2.286328
C      0.723612    2.880173    2.134479
C      1.201642    3.274024    0.812817
C      1.875228    4.598576    0.561483
C      2.137476    5.508092    1.735034
O      2.206876    4.939890   -0.575096
C      1.058037    2.448011   -0.250029
C      0.434034    1.164800   -0.112006
C      0.122948    0.096299   -0.961693
C      0.382057   -0.046181   -2.513065
C      0.974493    0.882128   -3.342641
C      1.057298    0.438743   -4.698571
C      0.523317   -0.817015   -4.863667
S     -0.071671   -1.449358   -3.395153
C     -1.168310   -1.308266    2.020538
O     -1.420492   -1.155040    3.202676
H     -0.009526   -4.306915    1.561205
H     -2.442401   -5.701381    1.498852
H     -1.877293   -4.904687    0.022752
H     -2.161689   -3.572724    2.777665
H     -3.933407   -3.238386    0.300301
H     -4.379609   -4.067216    1.801048
H     -4.075972   -2.321717    1.804720
H     -2.027623   -2.222738   -0.806696
H     -0.407835   -2.989787   -0.541996
H     -0.237027    1.324000    3.238259
H      0.833498    3.542547    2.984768
H      2.754060    4.997702    2.479402
H      2.685227    6.391379    1.391934
H      1.192377    5.839966    2.172217
H      1.423231    2.760066   -1.219442
H      1.344222    1.846293   -3.033253
H      1.487910    1.017014   -5.507142
H      0.453678   -1.392995   -5.776295
