38

C      0.486588   -4.923996   -0.917568
N      0.360175   -3.690389   -0.148514
C      0.310202   -3.743804    1.255272
C      0.249152   -4.925017    2.009270
C      0.210564   -4.892847    3.409827
C      0.227039   -3.676605    4.085820
C      0.272746   -2.491275    3.360435
C      0.305429   -2.530242    1.963140
O      0.338776   -1.306503    1.334468
C      0.191994   -1.265965   -0.040577
C      0.048691    0.007559   -0.633898
C      0.052351    1.242269    0.161223
N      0.096193    1.416524    1.471702
C      0.074771    2.776489    1.633751
C      0.101437    3.569394    2.787851
C      0.067274    4.963935    2.632713
C      0.008123    5.549842    1.361235
C     -0.019099    4.768867    0.198970
C      0.016334    3.394180    0.397649
O      0.000817    2.419765   -0.554542
C     -0.108073    0.069974   -2.028630
C     -0.127298   -1.088680   -2.801334
C      0.020336   -2.336799   -2.196148
C      0.196561   -2.456238   -0.810312
H      1.076529   -5.684284   -0.394574
H     -0.501606   -5.338943   -1.142774
H      1.029272   -4.773048   -1.857092
H      0.214637   -5.899123    1.533415
H      0.164007   -5.823235    3.970311
H      0.197623   -3.650959    5.171453
H      0.277492   -1.532504    3.871977
H      0.147390    3.110622    3.769007
H      0.087318    5.598586    3.516552
H     -0.017063    6.634710    1.274272
H     -0.064488    5.202418   -0.791694
H     -0.226573    1.028319   -2.530857
H     -0.261697   -1.020235   -3.878212
H     -0.021844   -3.209455   -2.839553
