27

C      4.548765   -0.851297    3.346072
C      4.033551    0.228078    4.050317
C      2.884451    0.884416    3.603145
C      2.256895    0.432988    2.425638
S      0.844307    1.077861    1.689276
C      0.868574   -0.057046    0.406819
C     -0.147557   -0.055990   -0.656213
C     -1.209129    0.830685   -0.746247
N     -2.120406    0.790063   -1.747563
C     -1.957570   -0.161259   -2.673337
N     -2.843707   -0.226277   -3.676407
C     -2.655737   -1.194563   -4.595407
C     -1.605407   -2.081700   -4.517682
N     -0.701587   -2.035586   -3.517887
C     -0.867445   -1.081310   -2.591839
N      0.020349   -1.020302   -1.591664
C      1.946476   -0.913827    0.548446
C      2.756095   -0.649002    1.701602
C      3.921792   -1.295093    2.177955
H      5.443783   -1.355800    3.702072
H      4.526931    0.567466    4.958173
H      2.483528    1.728873    4.156403
H     -1.379898    1.616886   -0.019079
H     -3.380269   -1.235247   -5.401149
H     -1.457932   -2.859109   -5.259138
H      2.152203   -1.712390   -0.156369
H      4.333466   -2.141558    1.633668
