37

C      4.579222    5.435441   -2.971883
C      3.512657    4.430374   -2.644839
C      2.414671    4.255123   -3.515910
C      1.414514    3.303347   -3.258493
C      1.513643    2.509495   -2.125576
C      2.625457    2.698557   -1.284779
C      3.628044    3.625179   -1.508175
C      0.605481    1.460701   -1.655744
C     -0.575179    1.011315   -2.223792
C     -1.291638   -0.019163   -1.588857
C     -0.849484   -0.619032   -0.381704
C     -1.625826   -1.691097    0.251988
C     -2.104132   -2.792138   -0.437302
N     -2.825348   -3.792908    0.114553
C     -1.951197   -1.702036    1.597397
N     -2.664702   -2.673691    2.208412
C     -3.084109   -3.686912    1.430041
C     -3.850121   -4.794878    2.081348
C      0.345989   -0.160372    0.189897
C      1.027691    0.854608   -0.461159
S      2.540281    1.581111    0.070938
O      3.592279    0.598323   -0.068206
O      2.282757    2.332635    1.279732
H      5.063574    5.802341   -2.060844
H      5.337134    4.979562   -3.616230
H      4.151785    6.303457   -3.484647
H      2.334593    4.870389   -4.411578
H      0.583846    3.202613   -3.950648
H      4.465306    3.715934   -0.823016
H     -0.959776    1.440351   -3.144717
H     -2.226289   -0.346791   -2.045616
H     -1.907445   -2.921218   -1.498833
H     -1.646693   -0.893797    2.258192
H     -4.545155   -5.252304    1.370638
H     -4.427994   -4.416530    2.930073
H     -3.156604   -5.560986    2.439811
H      0.747545   -0.584672    1.106302
