48

C      1.526091    3.519150   -3.580155
C      1.517072    2.523241   -4.727980
N      2.324178    1.357296   -4.433105
C      1.843836    0.318983   -3.658891
O      0.701665    0.301085   -3.203675
C      2.858742   -0.779899   -3.384946
S      3.433492   -0.646636   -1.666023
C      2.164033   -1.532927   -0.896744
N      2.047480   -2.837106   -0.932913
N      0.859872   -3.158796   -0.328546
C      0.253265   -2.040263    0.029221
C     -1.086607   -1.972445    0.603554
C     -1.381930   -2.696419    1.763517
C     -2.661654   -2.643407    2.322873
C     -3.670512   -1.885747    1.723315
O     -4.872538   -1.916206    2.374592
C     -5.959472   -1.245003    1.749487
C     -3.389419   -1.183745    0.550481
C     -2.106585   -1.234337   -0.010226
N      1.110416   -0.980971   -0.216127
C      0.901824    0.414156    0.112727
C      1.396333    0.883491    1.498224
C      2.910284    0.759920    1.669936
C      0.678265    0.199192    2.660112
H      0.934474    4.402828   -3.839058
H      2.547971    3.842827   -3.353193
H      1.104745    3.079955   -2.668931
H      0.491064    2.204315   -4.941708
H      1.929903    2.983253   -5.631616
H      3.316688    1.407814   -4.628222
H      3.723027   -0.674444   -4.048213
H      2.402666   -1.752388   -3.595446
H     -0.614213   -3.302024    2.240689
H     -2.874636   -3.204126    3.229918
H     -5.774486   -0.167515    1.687567
H     -6.169696   -1.669133    0.762347
H     -6.847186   -1.394637    2.372214
H     -4.144493   -0.594625    0.040857
H     -1.916925   -0.706111   -0.943222
H      1.381499    1.023247   -0.660792
H     -0.166187    0.630003    0.018538
H      1.155733    1.953677    1.563134
H      3.224675    1.197656    2.623575
H      3.437585    1.296210    0.874786
H      3.236176   -0.284681    1.664163
H      0.959548    0.664474    3.611645
H     -0.407917    0.293053    2.558951
H      0.936213   -0.861872    2.726835
