41

C      4.204256    0.721257    4.490432
C      5.566649    1.326794    4.261439
C      5.703063    1.834619    3.027432
C      4.452291    1.616000    2.323837
C      4.104211    1.957706    1.039451
C      2.816810    1.628989    0.596429
C      1.851875    0.958559    1.410679
C      2.253229    0.624032    2.732508
C      1.363110   -0.032604    3.590077
C      0.077068   -0.370996    3.176005
C     -0.377685   -0.071535    1.892695
C     -1.703646   -0.456039    1.563895
C     -2.321884   -0.234861    0.318246
C     -3.692159   -0.637647    0.041874
S     -4.991556   -0.327830    1.160097
C     -6.183545   -1.117331    0.174527
C     -5.560520   -1.564875   -0.933138
C     -5.826423   -2.265108   -2.134080
C     -4.606836   -2.353720   -2.837402
N     -3.567211   -1.739717   -2.141910
C     -4.210889   -1.299595   -1.019151
C     -1.515120    0.421989   -0.644896
N     -1.870999    0.735306   -1.904812
S     -0.594792    1.514498   -2.599372
N      0.494517    1.455839   -1.364745
C     -0.090642    0.848593   -0.315290
C      0.507506    0.599830    0.987927
C      3.543962    0.959622    3.160280
H      3.680086    1.243954    5.295819
H      4.288636   -0.347351    4.708549
H      6.338264    1.342837    5.018053
H      6.569197    2.320744    2.608899
H      4.799396    2.467659    0.381223
H      2.577367    1.915761   -0.423373
H      1.659028   -0.293000    4.604288
H     -0.568519   -0.879963    3.891184
H     -2.292653   -0.969912    2.328327
H     -7.217586   -1.187576    0.478711
H     -6.774054   -2.661087   -2.473951
H     -4.397124   -2.802812   -3.799653
H     -2.596737   -1.591261   -2.393434
