41

C     -6.213590   -2.059709    1.219532
C     -4.862218   -1.948919    0.867867
C     -4.671293   -0.587550    0.566039
C     -3.706474    0.279530    0.175112
S     -4.451327    1.860187    0.072539
C     -6.013363    1.288085    0.557514
C     -5.911407   -0.035058    0.772299
O     -6.910735   -0.866033    1.174021
C     -2.295996    0.109787   -0.138799
C     -1.285337    0.886598    0.436299
C      0.101261    0.714184    0.124878
C      1.116291    1.435061    0.784907
C      0.960568    2.367291    1.783763
O      2.177683    2.819523    2.197750
C      3.121537    2.170290    1.459532
C      2.519873    1.306573    0.575214
C      3.154761    0.477358   -0.369772
C      4.599170    0.414607   -0.495144
C      5.258189   -0.344036   -1.466260
C      4.352054   -0.948483   -2.325430
C      4.803260   -1.648482   -3.418734
S      3.503350   -2.163954   -4.401449
C      2.348037   -1.437071   -3.357016
C      2.901734   -0.902967   -2.214914
C      2.159773   -0.246516   -1.162876
C      0.670837   -0.207041   -0.842613
C     -0.369993   -1.087477   -1.352731
N     -0.180720   -2.182574   -2.108854
S     -1.648871   -2.837842   -2.464670
N     -2.636439   -1.815000   -1.633329
C     -1.852510   -0.912809   -1.014682
H     -6.815894   -2.906913    1.520622
H     -4.144760   -2.756132    0.835034
H     -6.882709    1.921404    0.655346
H     -1.576585    1.639606    1.168185
H      0.116947    2.802408    2.300912
H      4.142128    2.443677    1.686956
H      5.222012    0.985135    0.192576
H      6.335688   -0.379794   -1.555663
H      5.821197   -1.855413   -3.719656
H      1.325000   -1.445790   -3.691170
