51

C     -2.502048   -1.400584    6.227476
C     -1.209924   -0.811943    6.714824
C     -0.459218   -0.455497    5.662879
C      0.846058    0.144004    5.621023
C      1.756701    0.550283    6.665476
C      2.867185    1.065338    6.116263
C      2.758072    1.031323    4.616324
C      1.405636    0.413606    4.420182
C      0.744405    0.124322    3.128210
C      1.369781    0.424627    1.910543
C      0.737261    0.148285    0.688626
C     -0.549448   -0.441771    0.686780
C     -1.255875   -0.744291   -0.580152
C     -0.725343   -0.494385   -1.797891
C     -1.538532   -0.805328   -2.932033
S     -1.653490   -2.434551   -3.530249
C     -2.722857   -1.995349   -4.815072
C     -2.978685   -0.651957   -4.793092
C     -3.789811    0.159972   -5.646997
C     -3.811010    1.473003   -5.328141
Si    -2.716582    1.837481   -3.790711
C     -2.303049   -0.000507   -3.729516
C      0.606464    0.111649   -1.864801
C      1.263375    0.410826   -3.005691
Si     2.930043    1.165309   -2.663264
C      2.566094    0.995571   -0.835715
C      1.352313    0.442970   -0.625974
C     -1.180699   -0.745220    1.901557
C     -0.549205   -0.469280    3.119212
C     -1.170847   -0.768881    4.425238
C     -2.357656   -1.317689    4.733275
H     -3.357682   -0.813009    6.572921
H     -2.610296   -2.438720    6.554960
H     -0.943369   -0.701310    7.754171
H      1.555598    0.446356    7.720309
H      3.717436    1.448949    6.659290
H      2.805873    2.043854    4.203698
H      3.552857    0.413949    4.186289
H      2.356231    0.876052    1.914495
H     -2.247303   -1.181311   -0.490129
H     -3.088151   -2.748484   -5.498658
H     -4.340698   -0.256551   -6.482326
H     -4.346314    2.266890   -5.823031
H     -1.578563    2.712557   -4.169916
H     -3.556498    2.318314   -2.665124
H      0.922547    0.249640   -4.016601
H      3.012614    2.584220   -3.085850
H      4.055198    0.301635   -3.094417
H      3.291652    1.317243   -0.107854
H     -2.167864   -1.198612    1.895254
H     -3.111015   -1.656991    4.040280
