32

C      3.331632   -1.893415    3.120308
C      3.044060   -3.227163    2.444914
C      2.824957   -3.103136    0.934217
C      1.563646   -2.362224    0.561801
C      1.626143   -1.062981    0.043266
C      0.457746   -0.372464   -0.298188
C     -0.793011   -0.973786   -0.122045
C     -2.077640   -0.291526   -0.468210
O     -3.125458   -0.937070   -0.473588
C     -2.088183    1.181700   -0.822948
C     -1.947131    1.382062   -2.323016
C     -3.153100    0.901855   -3.081137
O     -3.142865    0.103311   -4.002919
O     -4.295321    1.494172   -2.690519
C     -0.856213   -2.276225    0.390193
C      0.311313   -2.963684    0.730971
H      2.471126   -1.220204    3.061179
H      4.191849   -1.397271    2.659770
H      3.558904   -2.050391    4.179627
H      2.176743   -3.695830    2.924433
H      3.898786   -3.892372    2.617110
H      2.773581   -4.107964    0.495263
H      3.695946   -2.621926    0.471683
H      2.589755   -0.577491   -0.099858
H      0.562138    0.626850   -0.707836
H     -1.296488    1.709038   -0.282290
H     -3.026586    1.605609   -0.445059
H     -1.072570    0.845211   -2.707295
H     -1.806610    2.443189   -2.556495
H     -4.985861    1.053551   -3.229518
H     -1.818860   -2.766313    0.527462
H      0.234664   -3.974402    1.126784
