36

O      3.776775   -1.458998   -3.710375
C      3.098386   -1.064723   -2.761642
C      2.802562   -1.959243   -1.585876
C      2.526287   -1.111053   -0.355503
N      1.415877   -0.163388   -0.560572
C      0.677827    0.351106    0.521591
S      1.153030    0.228503    2.127866
N     -0.479914    0.992666    0.121352
C     -1.490936    1.572837    1.007330
C     -2.480997    2.465837    0.251208
C     -3.256589    1.731475   -0.818491
C     -3.008561    1.986000   -2.174799
C     -3.708065    1.293606   -3.164145
C     -4.661877    0.342307   -2.808187
C     -4.919284    0.084476   -1.463151
C     -4.221385    0.775998   -0.471922
C      1.237485    0.334344   -1.935606
C      2.529988    0.330100   -2.734627
H      3.663868   -2.610288   -1.406462
H      1.933622   -2.576450   -1.837763
H      3.411247   -0.518036   -0.092686
H      2.299964   -1.773790    0.485701
H     -0.873607    0.602705   -0.724914
H     -2.005746    0.744088    1.506591
H     -0.990103    2.172218    1.774744
H     -3.193646    2.904606    0.960564
H     -1.938721    3.307479   -0.198243
H     -2.269593    2.727852   -2.470136
H     -3.512949    1.499657   -4.213478
H     -5.208984   -0.194661   -3.578793
H     -5.666815   -0.654377   -1.185464
H     -4.437535    0.563788    0.572976
H      0.492370   -0.315679   -2.410513
H      0.835762    1.353010   -1.919477
H      2.336759    0.657953   -3.760909
H      3.274091    0.994672   -2.282963
