32

O      1.515697   -5.371737   -0.058408
C      1.836716   -4.372444    0.570666
C      2.934563   -4.431784    1.555151
C      3.307940   -3.359158    2.256711
C      2.645063   -2.051182    2.089218
O      3.009211   -1.085405    2.746489
C      1.542280   -1.956887    1.111945
C      0.887811   -0.729483    0.925098
C     -0.163203   -0.613668    0.002423
C     -0.866139    0.648868   -0.216976
N     -1.865115    0.907434   -1.044115
C     -2.127074    2.236489   -0.837745
C     -3.067238    3.097891   -1.408783
C     -3.074264    4.415897   -0.972911
O     -3.888480    5.432458   -1.376638
C     -3.464342    6.494392   -0.632252
N     -2.470090    6.249510    0.195157
C     -2.207746    4.920141   -0.010963
C     -1.267931    4.057938    0.559483
C     -1.261634    2.740197    0.123036
O     -0.447940    1.725245    0.526833
C     -0.542975   -1.752192   -0.727105
C      0.107711   -2.976394   -0.542657
C      1.153265   -3.077676    0.379910
H      3.419844   -5.393572    1.676341
H      4.114022   -3.399972    2.980488
H      1.205474    0.136203    1.506254
H     -3.762997    2.748786   -2.162450
H     -3.982009    7.430141   -0.791820
H     -0.572279    4.407510    1.313204
H     -1.356605   -1.689234   -1.450364
H     -0.205344   -3.844792   -1.120513
