45

C     -0.016831    6.004041    1.764811
C      0.708383    7.287912    1.479181
C      1.625750    7.080596    0.528198
C      1.586378    5.698845    0.126651
C      0.646781    5.029699    0.824886
C      0.326835    3.607282    0.690237
C      1.044918    2.714094   -0.149150
C      0.802951    1.329202   -0.346900
N      1.641701    0.730640   -1.186308
C      1.498056   -0.595999   -1.420831
C      0.531630   -1.448864   -0.881014
C     -0.427752   -0.803747   -0.067353
C     -1.537959   -1.576130    0.323124
C     -1.695137   -2.921761   -0.022256
C     -0.730812   -3.607008   -0.749555
C     -0.986332   -4.991340   -1.040823
C     -0.118286   -5.844615   -1.740388
C      1.055587   -5.191395   -2.080369
C      2.071415   -5.863553   -2.715027
S      3.435782   -4.855963   -2.933217
C      2.655939   -3.527104   -2.165878
C      1.352875   -3.798530   -1.809816
C      0.440983   -2.882204   -1.159068
C     -0.254187    0.602419    0.276210
C     -0.957401    1.484727    1.168486
C     -1.951576    1.156383    2.062241
N     -2.335012    2.303086    2.715498
C     -1.567520    3.361331    2.295196
C     -0.679576    2.895153    1.353642
H      0.127088    5.722068    2.812470
H     -1.080335    6.128896    1.538905
H      0.509546    8.227938    1.970424
H      2.299041    7.815565    0.114213
H      2.244013    5.307854   -0.634726
H      1.887706    3.112791   -0.716464
H      2.208885   -0.940647   -2.160715
H     -2.362166   -1.128979    0.863891
H     -2.604307   -3.425298    0.304137
H     -1.925142   -5.431580   -0.696739
H     -0.346368   -6.883502   -1.937041
H      2.102849   -6.893746   -3.042749
H      3.254670   -2.644105   -2.019747
H     -2.429119    0.230504    2.338278
H     -3.053849    2.353956    3.426276
H     -1.737779    4.328202    2.740768
