43

C      1.738708    0.591290    7.842477
O      0.451029    0.133683    7.668995
C      0.246419   -0.038707    6.319493
C      1.398043    0.311649    5.693520
C      2.364687    0.715613    6.625629
C      3.669054    1.148650    6.396813
C      4.005827    1.161124    5.020328
C      3.050708    0.758754    4.056877
O      3.221885    0.715290    2.696760
C      2.038363    0.266431    2.162410
C      1.093981    0.015809    3.162085
N     -0.161033   -0.436094    2.914226
C     -0.436035   -0.630381    1.596309
C      0.423957   -0.415439    0.510195
C      0.023382   -0.657048   -0.860098
C      0.819268   -0.471428   -2.041592
C      0.304676   -0.751910   -3.405603
S      1.284418   -0.519821   -4.818655
C      0.080853   -1.018019   -5.912444
C     -1.063218   -1.363542   -5.253344
N     -2.176025   -1.797119   -5.907065
C     -3.174270   -2.075916   -5.030430
C     -3.080214   -1.938988   -3.643515
N     -1.979613   -1.508132   -2.970200
C     -0.945680   -1.214808   -3.817352
C      2.098297   -0.001304   -1.661684
C      3.202416    0.322828   -2.416335
O      4.234029    0.738794   -1.622594
C      3.805940    0.688330   -0.332942
C      2.510893    0.243893   -0.298949
C      1.719916    0.055930    0.828831
C      1.765477    0.335817    4.331870
H      2.026707    0.768134    8.869208
H     -0.728231   -0.397658    6.021159
H      4.365959    1.447505    7.169137
H      4.994109    1.478109    4.699849
H     -1.448785   -0.993232    1.420925
H     -0.997723   -1.018581   -0.981068
H      0.261343   -1.035876   -6.977500
H     -4.096348   -2.428509   -5.483923
H     -3.931626   -2.185678   -3.014993
H      3.451359    0.329552   -3.465710
H      4.529380    0.994106    0.410130
