38

C     -4.843046    2.549526   -4.509575
C     -4.356341    3.722144   -3.958940
C     -3.396713    3.286209   -3.050029
C     -2.535921    3.981900   -2.164817
N     -2.542273    5.307913   -2.085723
S     -1.364318    5.624851   -0.915206
N     -0.866650    4.055526   -0.530241
C     -1.617980    3.287532   -1.313222
C     -1.516316    1.847748   -1.306587
C     -0.657819    1.035129   -0.520634
C      0.315091    1.304773    0.446661
N      1.000261    0.302967    1.051197
C      0.778834   -0.996117    0.751431
C     -0.175032   -1.342680   -0.202225
C     -0.889376   -0.310304   -0.833289
S     -2.119819   -0.499452   -2.046839
C     -2.342488    1.163941   -2.157234
C     -3.325322    1.922502   -3.068047
O     -4.222882    1.449575   -3.974831
C      1.585109   -2.003629    1.473860
C      1.486916   -3.423355    1.286763
C      2.259927   -4.426921    1.976952
C      3.234767   -4.139067    2.947219
C      3.333438   -2.769886    3.131548
C      4.194616   -2.165968    4.011152
N      3.988762   -0.811394    3.897215
C      3.011693   -0.556225    2.959678
C      2.572119   -1.758378    2.453244
H     -5.594390    2.332668   -5.257122
H     -4.666475    4.729735   -4.196925
H      0.577448    2.307340    0.767314
H     -0.382021   -2.369997   -0.470428
H      0.772787   -3.816729    0.564261
H      2.073647   -5.472144    1.727928
H      3.811954   -4.892500    3.462316
H      4.927661   -2.559684    4.701531
H      4.480485   -0.101066    4.422951
H      2.729713    0.465914    2.750060
