38

C     -3.904948   -2.991513   -0.038811
C     -3.333768   -2.923359    1.364042
O     -2.594414   -1.703290    1.483508
C     -1.990187   -1.521534    2.689774
O     -2.086951   -2.299282    3.631839
C     -1.220035   -0.290639    2.768662
C     -0.564415    0.222042    3.930088
C      0.035687    1.399559    3.562138
O     -0.193095    1.653394    2.251528
C     -0.950475    0.625527    1.760354
C     -1.293014    0.723554    0.316497
S     -0.259533   -0.366437   -0.713118
C      1.373616    0.408099   -0.484519
C      1.453424    1.771105   -1.066980
C      1.439165    3.036599   -0.520003
C      1.561812    3.940491   -1.602131
C      1.656329    3.180547   -2.755412
C      1.800424    3.532848   -4.149116
O      1.886379    2.753405   -5.090667
O      1.830351    4.894421   -4.275890
C      1.970648    5.346061   -5.622799
O      1.595288    1.853128   -2.420847
H     -4.483806   -3.908372   -0.180513
H     -4.552427   -2.130149   -0.233638
H     -3.102577   -2.960989   -0.783407
H     -4.148314   -2.934326    2.096724
H     -2.670190   -3.778398    1.535029
H     -0.546397   -0.226677    4.914602
H      0.630264    2.134107    4.087724
H     -2.339196    0.441301    0.161898
H     -1.210207    1.755309   -0.038696
H      2.109761   -0.235163   -0.979314
H      1.638139    0.417518    0.577108
H      1.345634    3.274913    0.531075
H      1.582927    5.020851   -1.555293
H      2.915058    4.994064   -6.049637
H      1.982526    6.439498   -5.613491
H      1.121871    5.015090   -6.229466
