40

Si     1.772055   -1.639688   -5.205419
C      0.584270   -2.297407   -6.501461
C     -0.687526   -2.357870   -6.066903
C     -0.868379   -1.897964   -4.679208
C     -2.091192   -1.869565   -4.015726
C     -2.115936   -1.402498   -2.682186
S     -3.529160   -1.287635   -1.679904
C     -2.580739   -0.665939   -0.380319
C     -2.747508   -0.219664    0.961310
C     -1.490615    0.161821    1.395935
N     -0.589854   -0.063398    0.381973
C     -1.264954   -0.559778   -0.706528
C     -0.947504   -0.976309   -2.034030
C      0.290818   -1.010623   -2.720413
C      0.308689   -1.472508   -4.035885
C     -1.066640    0.680627    2.699339
C     -1.145797   -0.188313    3.798572
C     -0.723564    0.222272    5.058420
C     -0.217385    1.507613    5.233608
C     -0.135919    2.404722    4.157454
C      0.369560    3.700459    4.357214
C      0.445070    4.613023    3.306073
C      0.009982    4.244124    2.040503
C     -0.492790    2.959086    1.825068
C     -0.569868    2.004049    2.868019
H      2.747675   -2.665841   -4.760330
H      2.354206   -0.328473   -5.586032
H      0.937487   -2.583839   -7.480107
H     -1.522595   -2.707768   -6.659305
H     -3.004582   -2.195828   -4.502846
H     -3.667787   -0.177248    1.527982
H      0.408621    0.101196    0.402185
H      1.201167   -0.683185   -2.227041
H     -1.529488   -1.198393    3.670222
H     -0.785182   -0.459492    5.902417
H      0.110015    1.808849    6.226686
H      0.706384    4.012797    5.343631
H      0.834697    5.612489    3.479834
H      0.052608    4.954778    1.219301
H     -0.844723    2.712367    0.825610
