41

C      3.225643    5.315349   -1.940572
N      3.469743    4.494824   -0.859749
C      2.460423    3.562868   -0.728230
C      1.562764    3.782518   -1.746062
C      0.372513    3.092503   -2.013824
C     -0.282448    3.668094   -3.138015
C      0.218015    4.789928   -3.890953
C      1.425002    5.464576   -3.602184
C      2.046265    4.896088   -2.499042
C     -0.130996    1.953878   -1.258274
C     -1.374950    2.005774   -0.625083
C     -1.864210    0.908605    0.096116
C     -1.131401   -0.297622    0.213075
C      0.116120   -0.341970   -0.434777
C      0.848895   -1.515953   -0.335950
N      0.450384   -2.615446    0.339940
C     -0.741284   -2.599536    0.971455
C     -1.171749   -3.733984    1.678851
C     -0.422175   -4.910828    1.772140
N     -0.809422   -6.019374    2.446021
C     -2.004163   -5.957411    3.059665
C     -2.820367   -4.841951    3.027641
C     -2.409235   -3.717503    2.334682
N     -3.207573   -2.646200    2.311916
C     -2.781099   -1.561015    1.627212
C     -1.567951   -1.460511    0.935358
C      0.602250    0.765244   -1.157610
H      3.909685    6.113592   -2.194204
H      4.268985    4.571541   -0.244174
H      2.482799    2.845280    0.080531
H     -1.225411    3.229088   -3.468191
H     -0.375021    5.136885   -4.737928
H      1.791028    6.306861   -4.170749
H     -1.975035    2.912953   -0.677606
H     -2.836944    1.023579    0.567527
H      1.820178   -1.616557   -0.815289
H      0.548592   -4.995789    1.287566
H     -2.301117   -6.854200    3.595718
H     -3.775440   -4.846744    3.541015
H     -3.488903   -0.737865    1.660428
H      1.568424    0.700226   -1.657916
