36

C      0.155778   -1.811255   -4.618674
C     -1.078718   -1.006853   -4.931234
C     -1.359177   -0.203116   -3.895542
C     -2.451383    0.750291   -3.741233
C     -2.557537    1.473623   -2.602298
C     -1.564689    1.244940   -1.605522
N     -1.539163    1.903699   -0.395211
C     -0.458429    1.434834    0.298046
C     -0.025553    1.815304    1.589036
C      1.092020    1.131132    1.950897
Si     1.641005   -0.112621    0.510079
C      0.187263    0.491125   -0.470699
C     -0.488251    0.357435   -1.664675
C     -0.352891   -0.412552   -2.845461
C      0.530301   -1.335685   -3.241409
C      1.789977    1.264398    3.177434
S      1.316783    2.356157    4.463917
C      2.626637    1.903109    5.506386
C      3.352597    0.969555    4.861140
C      4.493533    0.179280    5.060077
C      4.616434   -0.572592    3.886601
O      3.634745   -0.321415    2.947018
C      2.904818    0.623765    3.607582
H     -0.064850   -2.882808   -4.617232
H      0.953317   -1.599879   -5.337106
H     -1.637655   -1.079345   -5.850960
H     -3.165278    0.863907   -4.548521
H     -3.357101    2.190300   -2.456074
H     -2.198153    2.602779   -0.081350
H     -0.537536    2.557175    2.187397
H      2.957724    0.279937   -0.060854
H      1.522911   -1.528049    0.953314
H      1.377508   -1.692634   -2.679315
H      2.754005    2.347482    6.482989
H      5.151862    0.136638    5.915608
H      5.338723   -1.316438    3.576039
