39

C     -2.719209    0.372519    5.214246
C     -2.937006    0.018048    3.881419
C     -1.880238   -0.025178    2.948136
C     -2.113014   -0.393862    1.553824
C     -2.141367   -1.734292    1.169538
C     -2.354693   -2.095960   -0.165724
C     -2.549291   -1.106739   -1.163084
C     -2.524063    0.228650   -0.763156
C     -2.312145    0.598267    0.581434
S     -2.774336    1.287354   -2.088749
C     -2.920255    0.000312   -3.212652
C     -3.151501    0.112991   -4.598572
C     -3.243035   -1.047881   -5.368384
C     -3.108372   -2.294993   -4.777658
C     -2.879109   -2.400922   -3.402511
C     -2.780445   -1.240553   -2.589990
C     -0.575632    0.299546    3.394661
C     -0.409044    0.647063    4.732749
C     -1.440304    0.697084    5.669186
O      0.891844    0.930134    5.003206
C      1.588653    0.768818    3.846877
N      2.917233    0.971104    3.765737
C      3.412819    0.755467    2.528867
C      2.677827    0.363118    1.418492
C      1.303447    0.164616    1.551238
C      0.731417    0.377387    2.818658
H     -3.556846    0.397721    5.908219
H     -3.948188   -0.226861    3.558498
H     -1.991100   -2.518035    1.910398
H     -2.369017   -3.149294   -0.434837
H     -2.297576    1.650124    0.859070
H     -3.257932    1.089310   -5.063473
H     -3.421786   -0.970526   -6.438328
H     -3.181460   -3.194849   -5.383614
H     -2.776587   -3.386560   -2.955480
H     -1.249984    0.975420    6.699215
H      4.485704    0.914830    2.442035
H      3.167046    0.213566    0.461370
H      0.704924   -0.143357    0.700176
