39

C      0.687857    2.643457   -6.225750
O      0.939232    1.900432   -5.033698
C      1.583618    2.610925   -4.061421
O      1.922771    3.782708   -4.175199
C      1.819676    1.816270   -2.869054
C      1.470107    0.458013   -2.607011
C      1.910752    0.167921   -1.333426
C      1.857686   -1.051276   -0.489421
O      0.562469   -1.057923    0.115793
C      0.324323   -2.164255    0.866007
O      1.105136   -3.091822    1.011041
C     -1.041856   -2.084355    1.480626
C     -1.771474   -0.901187    1.492495
C     -3.026893   -0.906006    2.093563
C     -3.522106   -2.085348    2.662818
C     -4.783593   -2.136500    3.280757
C     -5.247859   -3.327031    3.836748
C     -4.456544   -4.468960    3.775943
C     -3.201817   -4.414037    3.162811
C     -2.713684   -3.240395    2.603139
N     -1.500265   -3.240913    2.028392
O      2.510560    1.264310   -0.790891
C      2.458330    2.258241   -1.721404
C      3.070339    3.548257   -1.331080
H      0.166175    1.988653   -6.930059
H      0.045436    3.505078   -6.013612
H      1.629132    2.962650   -6.683136
H      0.961038   -0.224787   -3.273598
H      2.632476   -1.018047    0.284683
H      1.993312   -1.942329   -1.114149
H     -1.382998    0.012487    1.055644
H     -3.611530    0.010956    2.116955
H     -5.410302   -1.249042    3.331384
H     -6.223285   -3.363946    4.315496
H     -4.809297   -5.405341    4.202670
H     -2.587111   -5.311779    3.121158
H      3.895873    3.798682   -2.004110
H      3.466218    3.508225   -0.311067
H      2.329762    4.353146   -1.374139
