43

C      2.496422   -6.062400   -4.442196
C      1.307266   -6.795719   -4.352343
C      0.413443   -6.257265   -3.396068
C     -0.823184   -6.610683   -2.979512
S     -1.323514   -5.476978   -1.780434
C      0.148251   -4.588191   -1.871819
C      0.397314   -3.422621   -1.053823
C     -0.285588   -2.206546   -1.221014
C     -0.068914   -1.054660   -0.455334
N     -0.818386   -0.007025   -0.778154
C     -0.666030    1.148319   -0.082946
C      0.220087    1.374713    0.972617
C      1.016765    0.267491    1.318972
C      1.908254    0.486057    2.376435
N      2.064842    1.637651    3.074397
C      1.319903    2.693266    2.760073
C      1.558449    3.852721    3.549586
C      0.909544    5.097945    3.425518
C     -0.015368    5.037780    2.404529
C     -0.815342    6.082895    2.026069
N     -1.588264    5.628342    0.986803
C     -1.282486    4.308271    0.708040
C     -0.297266    3.901876    1.579305
C      0.359068    2.626708    1.697652
C      0.880080   -0.981899    0.597830
C      1.612773   -2.215783    0.820631
N      2.562896   -2.430331    1.748580
S      3.077828   -3.993306    1.591657
N      2.122563   -4.497319    0.342909
C      1.360870   -3.450491   -0.019341
C      0.988725   -5.132389   -2.804542
S      2.633346   -4.662329   -3.384932
H      3.335112   -6.267599   -5.093552
H      1.118188   -7.672783   -4.959083
H     -1.458547   -7.429345   -3.286283
H     -1.039058   -2.145064   -2.009652
H     -1.332036    1.919171   -0.443463
H      2.575507   -0.292238    2.734161
H      2.320216    3.766192    4.327779
H      1.125910    5.951581    4.050496
H     -0.911594    7.097349    2.389277
H     -2.281592    6.177691    0.494732
H     -1.822386    3.829640   -0.092081
