30

C      0.664381   -1.858643    3.056960
C      0.506029   -1.549214    1.616190
C      1.491711   -1.171821    0.695250
C      0.842830   -1.037292   -0.517016
C      1.472323   -0.776476   -1.834867
N     -0.514551   -1.257464   -0.264039
C     -1.684659   -1.163886   -1.059447
O     -2.739400   -1.667441   -0.668983
C     -1.605490   -0.368111   -2.325338
C     -1.554573    1.095496   -2.060124
C     -2.379016    1.864894   -1.244642
N     -1.902742    3.133217   -1.372929
C     -2.204515    4.378154   -0.873660
C     -1.372179    5.316542   -1.358307
S     -0.162132    4.656179   -2.476525
C     -0.852430    3.081927   -2.237007
N     -0.600077    1.883635   -2.686065
N     -0.690244   -1.641505    1.039990
H      1.707758   -1.753711    3.371323
H      0.349646   -2.886151    3.266494
H      0.057950   -1.178972    3.664237
H      2.552156   -1.054921    0.875128
H      2.562031   -0.870942   -1.760390
H      1.148702   -1.507245   -2.581273
H      1.269620    0.235748   -2.185338
H     -2.523064   -0.573743   -2.893118
H     -0.800087   -0.709850   -2.973559
H     -3.222236    1.614010   -0.615350
H     -3.020680    4.516612   -0.182284
H     -1.401999    6.371278   -1.118826
