44

C      3.005509    4.677489    2.687704
C      3.228174    5.556456    3.887176
C      2.425691    5.169016    4.887359
C      1.632758    4.045359    4.457310
C      1.941262    3.731452    3.185661
C      1.405899    2.674608    2.325878
C      0.419127    1.791618    2.754131
C     -0.048490    0.795426    1.865058
C     -1.066899   -0.169960    2.090807
C     -1.792667   -0.233001    3.263616
S     -3.032609   -1.428288    3.207934
C     -2.615791   -1.881254    1.602383
C     -1.524274   -1.174953    1.190381
C     -0.872194   -1.269266   -0.085249
C      0.068884   -0.278030   -0.371247
N      0.418579   -0.493298   -1.694802
C     -0.244685   -1.584800   -2.181526
C     -0.130913   -1.988688   -3.538428
C     -0.803613   -3.100953   -3.895178
C     -1.541356   -3.867975   -2.893452
C     -2.127714   -5.053015   -3.151537
Si    -2.800152   -5.815552   -1.587601
C     -2.151257   -4.340340   -0.639021
C     -1.611851   -3.421462   -1.461435
C     -0.981561   -2.168486   -1.156886
C      0.498738    0.718747    0.563278
C      1.479805    1.658057    0.238027
N      1.935137    2.617176    1.079916
H      3.927511    4.149856    2.422810
H      2.656215    5.271407    1.836877
H      3.932663    6.373344    3.922318
H      2.367158    5.614959    5.868680
H      0.911946    3.561333    5.097487
H      0.010484    1.867509    3.753515
H     -1.701623    0.366281    4.157769
H     -3.225993   -2.599776    1.082573
H      1.051002    0.086626   -2.226922
H      0.444777   -1.420847   -4.260731
H     -0.773712   -3.465553   -4.916163
H     -2.168757   -5.571944   -4.095735
H     -2.103003   -7.072953   -1.225616
H     -4.281299   -5.882997   -1.580259
H     -2.202771   -4.328780    0.434174
H      1.957091    1.673983   -0.736610
