33

C     -4.344658   -0.326382   -0.883124
O     -4.392074    0.609461    0.186778
C     -3.269753    0.730028    0.959432
C     -3.394427    1.614371    2.030982
C     -2.324784    1.834212    2.895800
C     -1.118979    1.164384    2.695521
C     -0.968707    0.263530    1.628251
C      0.374159   -0.437481    1.427223
C      0.237047   -1.958807    1.267687
C      0.075305   -2.397554   -0.166934
O     -0.504057   -3.433045   -0.480069
N      0.694630   -1.621332   -1.105466
C      1.290888   -0.414152   -0.878670
S      2.092291    0.221130   -2.272048
C      3.798090   -0.263344   -1.911630
C      1.176724    0.203486    0.310425
C      1.796304    1.461263    0.580245
N      2.324232    2.460631    0.840981
C     -2.057371    0.064091    0.757029
H     -5.323177   -0.323817   -1.372904
H     -4.159546   -1.340714   -0.514191
H     -3.598444   -0.033533   -1.629020
H     -4.333445    2.139005    2.190058
H     -2.431624    2.531105    3.723182
H     -0.295973    1.360278    3.380796
H      0.944308   -0.308230    2.360018
H     -0.601867   -2.346948    1.856963
H      1.149627   -2.447876    1.633537
H      0.683050   -1.971591   -2.057210
H      3.872837   -1.349124   -1.804510
H      4.153542    0.214803   -0.995039
H      4.442423    0.049356   -2.737607
H     -1.949667   -0.610628   -0.084400
