28

C      2.750569   -2.922137   -0.856266
N      1.854289   -1.865547   -1.256649
C      1.029526   -1.177323   -0.388954
N      1.033090   -1.484382    0.930556
C      0.224173   -0.780316    1.655042
C      0.099578   -0.974661    3.084232
C     -0.727333   -0.283564    3.949380
C     -0.599786   -0.730560    5.297203
C      0.320056   -1.747770    5.415933
S      1.021280   -2.156575    3.910963
N      0.331286   -0.274244   -1.048778
C      0.712177   -0.382404   -2.361939
C      0.273238    0.346382   -3.477695
C      0.816284    0.050496   -4.733371
C      1.777465   -0.951322   -4.875293
C      2.227400   -1.688735   -3.773470
C      1.671081   -1.376568   -2.526511
H      3.292964   -3.306904   -1.721985
H      3.462619   -2.518319   -0.131596
H      2.161393   -3.727413   -0.409465
H     -0.420225    0.011673    1.226448
H     -1.395812    0.508586    3.632861
H     -1.154049   -0.326769    6.135757
H      0.616515   -2.273080    6.313503
H     -0.473816    1.123132   -3.359169
H      0.483862    0.608614   -5.605299
H      2.185719   -1.164090   -5.861381
H      2.974657   -2.465201   -3.894172
