48

C     -2.685285   -2.162113   -5.004105
C     -3.313530   -2.462132   -3.651748
C     -3.598228   -1.176621   -2.871882
C     -4.235769   -1.435917   -1.502594
C     -3.252334   -1.422981   -0.326172
C     -2.204531   -2.536314   -0.374870
C     -1.365486   -2.639192    0.907591
C     -0.498368   -1.434347    1.175410
C     -0.718795   -0.461070    2.081708
C     -1.909202   -0.382281    2.997441
N      0.192655    0.563940    2.197969
C      1.355662    0.581274    1.490669
N      2.201395    1.629497    1.781364
C      1.727232    2.967209    2.174932
C      2.541972    4.068798    1.482553
O      3.941067    4.012258    1.786049
C      4.434097    2.671826    1.935181
C      3.574787    1.608955    1.238390
N      1.661868   -0.329331    0.621862
C      0.778763   -1.354339    0.370981
O      1.009045   -2.212164   -0.477185
H     -1.730023   -1.640799   -4.885445
H     -2.498733   -3.092233   -5.549652
H     -3.345526   -1.537347   -5.614213
H     -4.248164   -3.013903   -3.807326
H     -2.643872   -3.119290   -3.089441
H     -4.297020   -0.571882   -3.464384
H     -2.684238   -0.580699   -2.765090
H     -4.803949   -2.373552   -1.507902
H     -4.965429   -0.637293   -1.315709
H     -2.758442   -0.444943   -0.286312
H     -3.835245   -1.519915    0.597951
H     -2.709172   -3.497917   -0.529511
H     -1.541484   -2.382570   -1.232778
H     -2.027453   -2.849505    1.754225
H     -0.726121   -3.529157    0.836950
H     -1.589668   -0.497561    4.038608
H     -2.396096    0.593947    2.895700
H     -2.670133   -1.138728    2.797006
H      0.140442    1.128343    3.034003
H      1.828968    3.057920    3.262223
H      0.671648    3.104745    1.915153
H      2.179082    5.054040    1.792099
H      2.428362    4.007388    0.393739
H      4.493420    2.464996    3.010230
H      5.455248    2.651347    1.541451
H      4.030917    0.625543    1.399496
H      3.538279    1.803038    0.159783
