35

C      2.481841   -2.043692    3.126540
C      2.679868   -1.212281    1.892062
C      1.537343   -1.176264    1.195487
C      1.204375   -0.535590   -0.027084
C      1.923527    0.270923   -0.930193
C      1.056754    0.609504   -1.962315
N     -0.160611    0.018394   -1.686011
C     -0.081304   -0.679153   -0.513097
C     -1.147583   -1.442195    0.125699
N     -2.341131   -1.460259   -0.511883
C     -3.310976   -2.173684    0.100525
C     -3.141609   -2.857078    1.300788
C     -1.897444   -2.818120    1.932850
C     -0.862712   -2.097492    1.345046
C      0.506019   -1.963039    1.892211
C      1.042891   -2.471247    3.014358
C      1.174100    1.381183   -3.145398
C      2.327936    1.987867   -3.482327
C      2.175397    2.702461   -4.723883
C      0.924095    2.548722   -5.174352
C      0.148857    1.690447   -4.218740
H      2.645095   -1.450246    4.030941
H      3.149320   -2.910434    3.128409
H      3.603429   -0.725576    1.620594
H      2.957541    0.576250   -0.846520
H     -1.001704    0.073120   -2.244458
H     -4.268360   -2.186479   -0.413634
H     -3.966632   -3.411118    1.736245
H     -1.752787   -3.346921    2.869204
H      0.544908   -3.092810    3.741752
H      3.255959    1.967497   -2.930799
H      2.962818    3.267779   -5.198651
H      0.524229    2.972115   -6.082924
H     -0.199451    0.776817   -4.710804
H     -0.704374    2.238927   -3.807238
