38

C     -2.037004   -1.501360    2.291744
C     -1.406547   -1.049787    0.964256
C     -2.088862    0.231287    0.464858
C     -1.631283   -2.163362   -0.075293
N      0.043878   -0.849257    1.103680
C      0.640491    0.043611    1.972117
O      0.029528    0.712339    2.800527
C      2.158537    0.071387    1.902782
S      2.751862    0.197375    0.187434
C      3.613438    1.706072    0.337984
N      3.132326    2.900220    0.290023
C      1.777166    3.129513    0.005550
C      0.928499    3.574523    1.021805
C     -0.414984    3.853249    0.753611
C     -0.918519    3.706948   -0.539530
C     -0.079022    3.279606   -1.566282
C      1.256970    3.000221   -1.289817
F      2.049641    2.589148   -2.292160
N      4.974440    1.443006    0.557785
C      5.777095    2.502498    0.508458
N      6.538909    3.373212    0.474635
H     -1.524981   -2.385168    2.689386
H     -1.987359   -0.721967    3.058351
H     -3.094802   -1.756241    2.159785
H     -1.997755    1.048163    1.187776
H     -1.641078    0.572023   -0.475310
H     -3.157917    0.068028    0.288064
H     -1.204531   -1.888864   -1.047232
H     -1.151017   -3.097845    0.237822
H     -2.698102   -2.365212   -0.222872
H      0.622234   -1.139651    0.321860
H      2.521351    0.907407    2.509240
H      2.539450   -0.855506    2.343076
H      1.311787    3.704920    2.030803
H     -1.066968    4.185416    1.558551
H     -1.963220    3.927791   -0.744006
H     -0.452428    3.166665   -2.578803
H      5.305316    0.489269    0.432830
