29

C     -0.056431   -2.990319    3.335159
C     -0.396640   -3.736303    2.218088
C     -0.617103   -3.097286    0.993597
C     -0.506359   -1.690441    0.838077
C     -0.157060   -0.956242    1.999073
C      0.062352   -1.608191    3.224854
C     -0.028072    0.429751    1.930533
C     -0.238864    1.104938    0.731143
C     -0.586777    0.431003   -0.450819
C     -0.723904   -0.985467   -0.403383
C     -1.074063   -1.631230   -1.607571
C     -1.277962   -0.925380   -2.791303
C     -1.138458    0.461887   -2.815503
C     -1.343025    1.175329   -4.005406
C     -1.202275    2.554633   -4.020850
C     -0.860135    3.174355   -2.839271
N     -0.656519    2.515578   -1.677773
C     -0.789950    1.164988   -1.643978
H      0.116470   -3.479036    4.289897
H     -0.492428   -4.816416    2.291683
H     -0.880821   -3.732420    0.153105
H      0.330225   -1.036699    4.111464
H      0.239339    1.008903    2.811796
H     -0.126804    2.189185    0.725112
H     -1.197315   -2.709473   -1.651841
H     -1.546603   -1.473613   -3.691495
H     -1.612494    0.659435   -4.923649
H     -1.355174    3.127363   -4.927823
H     -0.734854    4.251942   -2.786002
