36

C     -3.172991   -5.381451   -1.153070
C     -2.474241   -5.043325   -2.284563
N     -1.892968   -3.821565   -2.069978
C     -2.199391   -3.346829   -0.808104
C     -3.002312   -4.322489   -0.229508
C     -1.721753   -2.054831   -0.277758
C     -2.084621   -1.651538    1.021246
C     -1.660257   -0.432628    1.579703
C     -0.845255    0.410307    0.811273
C     -0.494244   -0.001725   -0.472193
C     -0.903954   -1.207355   -1.046805
O      0.300433    0.927316   -1.089825
C      0.476713    1.963106   -0.207175
C     -0.214352    1.652212    0.940724
C     -0.189888    2.576652    2.022658
N     -0.823501    2.365197    3.165558
S     -0.455403    3.743627    4.044640
N      0.499624    4.568874    2.944448
C      0.576296    3.803415    1.833988
C      1.290756    4.106822    0.625088
C      2.034746    5.287258    0.428641
C      2.698957    5.499066   -0.781576
C      2.631847    4.546955   -1.803108
C      1.900032    3.370114   -1.629168
C      1.226250    3.142406   -0.417299
H     -3.743720   -6.288916   -1.004737
H     -2.338966   -5.563447   -3.223284
H     -1.320051   -3.341771   -2.748762
H     -3.430605   -4.286134    0.763428
H     -2.716268   -2.287658    1.637902
H     -1.962096   -0.157106    2.586565
H     -0.582618   -1.445843   -2.051302
H      2.095150    6.036349    1.215500
H      3.272376    6.411394   -0.929900
H      3.153804    4.724195   -2.740852
H      1.858079    2.639579   -2.434079
