31

C      0.880409   -1.866118    1.186451
N      0.612333   -0.683292    0.411964
C     -0.630668   -0.281883    0.000416
C     -2.008382   -0.621608    0.011893
C     -2.758465    0.357244   -0.650688
C     -4.165276    0.453096   -0.892114
C     -5.134957    0.064125   -0.040609
C     -4.888599   -0.489172    1.246662
N     -4.685899   -0.953670    2.290931
C     -6.493519    0.239172   -0.432967
N     -7.592304    0.388159   -0.774347
S     -1.754495    1.645736   -1.316898
C     -0.431635    0.873034   -0.665653
C      0.881919    1.173747   -0.661350
S      1.739417    2.451928   -1.295452
C      3.205335    1.705154   -0.658616
C      4.433105    2.398445   -0.900605
C      5.629493    1.819372   -1.124149
C      6.756790    2.658671   -1.358832
N      7.661261    3.361224   -1.544349
C      5.836809    0.412632   -1.168635
N      6.007297   -0.735322   -1.190436
C      2.945580    0.521369    0.042083
C      1.559112    0.220824    0.009800
H      0.810079   -1.605203    2.245365
H      1.883091   -2.233100    0.952201
H      0.146644   -2.636763    0.936257
H     -2.410106   -1.516816    0.470171
H     -4.458693    0.910985   -1.838475
H      4.369584    3.487587   -0.933787
H      3.688049   -0.086958    0.543553
