38

C      1.525157   -5.995556    3.699371
C      1.096292   -4.738819    3.002463
C     -0.170279   -4.647557    2.418303
C     -0.580580   -3.464382    1.794944
C      0.258475   -2.339844    1.747843
C     -0.174186   -1.094275    1.090850
C     -1.411318   -0.487035    1.434408
C     -1.857239    0.700115    0.830981
C     -1.054719    1.287147   -0.127854
C     -1.227305    2.487478   -0.917820
C     -2.252493    3.414478   -0.961219
C     -2.136066    4.494337   -1.849365
C     -1.001317    4.652725   -2.679474
C      0.027038    3.703183   -2.640550
C     -0.113202    2.650057   -1.756930
C     -0.928786    5.803669   -3.641107
C      0.167567    0.685705   -0.464305
C      0.807360    1.520842   -1.503415
O      1.876375    1.320294   -2.039473
C      0.628168   -0.482418    0.114619
C      1.522817   -2.439663    2.349690
C      1.935292   -3.621231    2.974507
H      2.611079   -6.124022    3.640125
H      1.068684   -6.875554    3.234108
H      1.229984   -5.958783    4.752485
H     -0.847196   -5.498711    2.438550
H     -1.565091   -3.432355    1.332675
H     -2.036779   -0.944660    2.200885
H     -2.807223    1.136295    1.121922
H     -3.131261    3.318274   -0.331979
H     -2.942619    5.225176   -1.895366
H      0.906487    3.777129   -3.272374
H     -1.412690    5.533195   -4.584563
H      0.111473    6.079643   -3.843333
H     -1.424910    6.687928   -3.227571
H      1.578684   -0.905772   -0.196103
H      2.198908   -1.586725    2.348029
H      2.918351   -3.659867    3.438565
