40

C     -2.411338   -2.492561    0.739249
C     -3.212837   -1.505612    0.186605
O     -2.448633   -0.403724   -0.097964
C     -1.181886   -0.699977    0.273546
C     -1.093314   -1.973806    0.797286
C      0.173431   -2.418199    1.227627
C      1.337195   -1.592946    1.133011
C      1.305939   -0.277762    0.604325
C      0.074893    0.188658    0.172381
O      0.154246    1.446473   -0.311364
C      1.457775    1.817603   -0.197580
C      1.950022    3.057951   -0.591636
C      3.315090    3.282725   -0.407402
C      4.152901    2.305792    0.148533
C      5.522041    2.559702    0.322017
C      6.366680    1.595546    0.874248
C      5.855997    0.361230    1.262222
C      4.497521    0.083527    1.100325
C      3.625758    1.043987    0.544126
C      2.228292    0.796167    0.362549
C     -4.635296   -1.407264   -0.137489
C     -5.502682   -2.481184    0.115306
C     -6.864250   -2.393506   -0.192346
C     -7.378948   -1.229825   -0.757725
C     -6.534007   -0.154004   -1.015768
C     -5.173265   -0.242990   -0.707762
H     -2.737520   -3.470254    1.062247
H      0.276126   -3.418211    1.645428
H      2.275287   -2.012164    1.487498
H      1.298064    3.809593   -1.020843
H      3.723146    4.246322   -0.708401
H      5.946507    3.517182    0.026740
H      7.424759    1.810461    1.000890
H      6.515604   -0.388354    1.692135
H      4.135686   -0.888278    1.413843
H     -5.131952   -3.402903    0.555741
H     -7.521447   -3.235233    0.010339
H     -8.436830   -1.160903   -0.997060
H     -6.929671    0.757140   -1.456983
H     -4.533563    0.611930   -0.919177
