46

C     -1.763610   -0.603359    3.479714
C     -2.367737    0.459486    2.775410
C     -1.491746    0.808377    1.716688
C     -1.386654    1.661167    0.673697
S      0.123032    1.324163   -0.122112
C      0.555286    0.056141    0.982807
C      1.781928   -0.680800    0.922705
C      2.687151   -0.871765    1.945523
C      3.797385   -1.673140    1.545532
C      3.722453   -2.082590    0.224969
S      2.290765   -1.467009   -0.506878
C      4.640806   -2.906937   -0.558954
N      4.631661   -2.788492   -1.927498
C      5.471609   -3.525907   -2.716549
C      6.414489   -4.456867   -2.298444
C      6.462387   -4.616329   -0.901255
N      7.283113   -5.453652   -0.247656
S      6.949738   -5.278214    1.366878
N      5.754168   -4.131004    1.312561
C      5.557641   -3.827520    0.014543
C     -0.442941   -0.068605    1.887503
N     -0.536153   -0.956914    2.922812
C     -2.278430    2.706753    0.176404
C     -1.909901    4.044643    0.397583
C     -2.726445    5.086192   -0.029305
C     -3.923955    4.803165   -0.680428
C     -4.322052    3.478558   -0.917508
C     -5.534093    3.216252   -1.578186
C     -5.947928    1.909209   -1.829948
C     -5.153168    0.845261   -1.426259
C     -3.945751    1.089131   -0.768053
C     -3.499170    2.404524   -0.491499
H     -2.122386   -1.147532    4.344091
H     -3.325669    0.905338    3.010078
H      2.573364   -0.445391    2.935215
H      4.618046   -1.924428    2.207205
H      5.351785   -3.327080   -3.781822
H      7.048641   -5.007062   -2.978453
H      0.123368   -1.681021    3.181207
H     -0.980117    4.277724    0.912786
H     -2.431624    6.117119    0.147019
H     -4.549603    5.631826   -1.005942
H     -6.169700    4.036145   -1.906248
H     -6.887630    1.724706   -2.343344
H     -5.465917   -0.176803   -1.622811
H     -3.346783    0.229555   -0.473993
