39

C     -0.773607    0.759373    7.202887
C      0.310819    0.818891    6.155637
O      1.486921    0.665231    6.462971
N     -0.194482    1.084494    4.895002
C      0.525860    1.212600    3.687723
C      1.908886    1.070267    3.591991
C      2.566862    1.208531    2.360566
C      1.829950    1.494726    1.197420
N      2.344257    1.656488   -0.076173
C      1.372673    1.910668   -0.909142
N      1.421725    2.135794   -2.253391
C      2.585301    2.063188   -2.985842
O      3.714846    1.831938   -2.566323
C      2.354047    2.346069   -4.474507
O      1.005204    2.204534   -4.907624
C      0.552784    0.944551   -5.192085
C      1.229315   -0.250551   -4.943335
C      0.631437   -1.473451   -5.264114
C     -0.641177   -1.507714   -5.831090
C     -1.321159   -0.318205   -6.077875
C     -0.725262    0.902270   -5.756591
S     -0.200442    1.979752   -0.256179
C      0.445572    1.634687    1.305114
C     -0.223880    1.497984    2.534994
H     -1.018837    1.773624    7.528526
H     -1.670062    0.271323    6.809632
H     -0.419978    0.178344    8.059549
H     -1.196805    1.209752    4.829015
H      2.522821    0.848234    4.460101
H      3.645260    1.095708    2.297148
H      0.546098    2.287982   -2.736439
H      2.627560    3.395434   -4.634697
H      3.037932    1.745623   -5.085684
H      2.218326   -0.278632   -4.496327
H      1.162439   -2.402336   -5.068543
H     -1.100901   -2.460796   -6.080057
H     -2.313231   -0.339186   -6.521238
H     -1.261311    1.827480   -5.954176
H     -1.302127    1.614387    2.574852
