46

C      1.958177    1.665044   -0.562282
C      1.119983    2.946280   -0.627592
C     -0.162870    2.716081   -0.277119
C     -0.275693    1.313201    0.032270
C      0.939806    0.643116   -0.118675
C      1.077664   -0.736853    0.166553
S      2.510641   -1.670747    0.176880
C      1.681989   -3.109027    0.645370
C      2.308460   -4.329922    0.957324
C      1.525828   -5.446716    1.230806
C      0.142844   -5.394406    1.097186
C     -0.618421   -6.563336    1.260808
C     -1.992034   -6.562102    1.026673
C     -2.615207   -5.397904    0.599008
C     -1.872861   -4.223419    0.450801
C     -0.493860   -4.171641    0.752362
C      0.285917   -2.957230    0.648080
C      0.006832   -1.551033    0.542892
C     -1.240931   -0.844567    0.813962
C     -2.394925   -1.226893    1.435645
N     -3.212966   -0.112888    1.438243
C     -2.549919    0.968100    0.890741
C     -1.297452    0.536343    0.524892
C      1.735428    4.219420   -1.029359
C      3.091263    4.356081   -1.377814
N      3.771918    5.486177   -1.766264
C      3.129089    6.682069   -1.854743
C      1.758707    6.722163   -1.538365
N      0.973185    7.810838   -1.571368
S     -0.537629    7.309881   -1.113093
N     -0.261987    5.699333   -0.853883
C      1.037690    5.458712   -1.113441
H      2.358846    1.398181   -1.545439
H      2.759355    1.750616    0.178847
H     -0.988839    3.404355   -0.217106
H      3.392484   -4.404371    0.982096
H      2.023796   -6.380635    1.483578
H     -0.140120   -7.497466    1.548366
H     -2.565362   -7.477757    1.143579
H     -3.676189   -5.401654    0.363540
H     -2.379283   -3.357022    0.037935
H     -2.724199   -2.139668    1.909822
H     -4.143719   -0.079969    1.833825
H     -3.023914    1.939624    0.852142
H      3.746313    3.484547   -1.357675
H      3.702791    7.545355   -2.164231
