38

C      5.044274    0.184802    0.427158
C      6.343899    0.692109    0.985989
C      6.142741    1.865687    1.600434
C      4.750936    2.221083    1.505060
C      4.081366    1.268961    0.830451
C      2.648918    1.260047    0.522520
C      2.062709    0.209231   -0.189757
C      0.702055    0.286060   -0.434523
C     -0.168967   -0.732645   -1.189109
C     -1.467808   -0.008795   -1.058620
C     -1.367897    1.178717   -0.372614
N     -2.573113    1.796484   -0.281709
C     -3.516743    1.000943   -0.926748
C     -4.908430    1.179039   -1.121478
C     -5.664350    0.213339   -1.822087
C     -4.915277   -0.875382   -2.273155
C     -5.480019   -1.916125   -2.975362
S     -4.308609   -3.117635   -3.400234
C     -3.024124   -2.249453   -2.642379
C     -3.529781   -1.102574   -2.107240
C     -2.805401   -0.105518   -1.395756
C     -0.024459    1.400809    0.035913
C      0.609821    2.394877    0.726599
N      1.939559    2.340357    0.977311
H      5.109493    0.083192   -0.660885
H      4.784085   -0.778275    0.877940
H      7.290629    0.180957    0.900042
H      6.889194    2.468000    2.095475
H      4.326818    3.123739    1.920702
H      2.636413   -0.638014   -0.542769
H      0.148745   -0.823555   -2.230628
H     -0.180769   -1.695646   -0.672912
H     -2.769107    2.678544    0.170666
H     -5.405378    2.064062   -0.731097
H     -6.729327    0.329552   -1.982341
H     -6.510762   -2.054553   -3.270947
H     -2.015858   -2.635669   -2.645302
H      0.092491    3.267149    1.105522
