47

C      2.856046   -3.580351    3.577497
C      1.912963   -4.732471    3.385748
C      1.066572   -4.444563    2.388901
C     -0.027759   -5.221162    1.866255
C     -0.756585   -4.684508    0.869068
C     -0.454159   -3.363483    0.307650
C      0.570927   -2.582895    0.738739
C      0.766979   -1.331243    0.065731
C      1.952513   -0.649423   -0.217028
C      1.571058    0.505529   -0.892636
C      2.331012    1.575611   -1.428013
C      3.690365    1.650661   -1.354457
S      4.195762    3.097629   -2.121005
C      2.568061    3.543693   -2.509773
C      1.622975    2.633011   -2.081752
C      0.214374    2.713262   -2.248071
C     -0.590278    3.770783   -2.915074
S      0.008641    5.182767   -3.666501
C     -1.544132    5.730445   -4.108111
C     -2.529006    4.862963   -3.699564
C     -1.982020    3.740910   -3.017007
C     -2.697204    2.643387   -2.455555
C     -4.014487    2.394475   -2.420984
C     -4.259895    1.101381   -1.705407
C     -2.870498    0.664952   -1.344678
C     -1.971938    1.564080   -1.784638
C     -0.499595    1.590059   -1.677555
C      0.208970    0.553262   -1.038088
O     -0.283955   -0.583017   -0.454574
C      1.371500   -3.123553    1.838317
C      2.400173   -2.603620    2.528018
H      2.756704   -3.153657    4.579916
H      3.892537   -3.885694    3.406913
H      1.918552   -5.634167    3.978073
H     -0.249753   -6.197271    2.280026
H     -1.595740   -5.226128    0.443298
H     -1.099120   -3.043298   -0.507784
H      2.946997   -0.986358    0.035555
H      4.406985    0.971972   -0.913894
H      2.459652    4.474456   -3.038915
H     -1.662580    6.660963   -4.645936
H     -3.582039    5.032433   -3.884994
H     -4.794134    3.014502   -2.834469
H     -4.869552    1.254969   -0.810252
H     -4.744096    0.372375   -2.361651
H     -2.663281   -0.245971   -0.805016
H      2.844393   -1.631229    2.389013
