40

C     -2.260622    2.135492    2.467828
C     -1.738755    1.070369    3.380868
C     -0.991754    0.208811    2.672080
C     -0.363723   -1.039179    3.075950
C     -0.240442   -1.444768    4.408578
C      0.402205   -2.639447    4.703953
C      0.903801   -3.381976    3.653314
N      0.799562   -3.018517    2.356524
C      0.153589   -1.859663    2.056581
C      0.105605   -1.453442    0.586604
C      0.320407   -2.404266   -0.533693
C      0.381632   -3.750640   -0.428005
Si     0.512433   -4.610024   -2.065249
C      0.430671   -2.928501   -2.865552
C      0.344427   -1.943408   -1.945471
C      0.320317   -0.495437   -2.237151
C      0.582047   -0.007703   -3.550748
C      0.755815    1.348180   -3.858628
C      0.729083    2.230496   -2.761190
N      0.957038    3.550472   -2.838743
S      0.899575    4.126939   -1.288702
N      0.554155    2.739270   -0.461753
C      0.438666    1.739219   -1.356394
C      0.136722    0.358929   -1.109815
C     -0.202314   -0.152475    0.263373
C     -0.918461    0.629790    1.281605
C     -1.702231    1.714551    1.142416
H     -1.895071    3.124798    2.757489
H     -3.354408    2.135597    2.450271
H     -1.989099    1.002170    4.427600
H     -0.627256   -0.833726    5.218118
H      0.517249   -2.976796    5.727603
H      1.424328   -4.319219    3.828465
H      0.323275   -4.344386    0.468753
H      1.823439   -5.267656   -2.284155
H     -0.676282   -5.436330   -2.387291
H      0.470149   -2.850105   -3.938473
H      0.690912   -0.708799   -4.376767
H      0.966174    1.692663   -4.863699
H     -1.928846    2.232278    0.223690
