50

C      2.316091   -5.245314   -2.777196
C      1.311869   -6.358867   -2.663176
C      0.196777   -5.886921   -2.091383
C     -1.038312   -6.560280   -1.777895
C     -2.020442   -5.837732   -1.203398
C     -1.861348   -4.411897   -0.892221
C     -0.721173   -3.725859   -1.153077
C     -0.663917   -2.311343   -0.801779
C     -1.350963   -1.270544   -1.470699
C     -1.260187    0.119574   -1.103107
C     -0.470191    0.623239   -0.031886
C     -0.372959    2.026475    0.334559
C      0.842071    2.714384    0.327269
C      0.891676    4.066574    0.676056
C     -0.284028    4.723071    1.026880
N     -1.481683    4.080506    1.035793
C     -1.494533    2.767292    0.694758
C     -0.335314    6.138499    1.404424
S      1.057136    7.176542    1.539889
C      0.127160    8.572440    1.994284
C     -1.168121    8.202324    2.025212
C     -2.461122    8.719978    2.286081
C     -3.376150    7.660227    2.102115
N     -2.728416    6.484444    1.735539
C     -1.423142    6.887134    1.709619
C      0.193489   -0.427366    0.613907
C      1.017991   -0.371199    1.709267
O      1.450362   -1.628159    2.030324
C      0.886255   -2.498880    1.139943
C      0.102732   -1.808473    0.251221
C      0.361572   -4.469098   -1.784161
C      1.582928   -4.076888   -2.177656
H      3.222902   -5.473477   -2.209287
H      2.573328   -5.053223   -3.823075
H      1.478607   -7.370620   -2.998120
H     -1.156267   -7.612605   -2.005646
H     -2.969282   -6.300109   -0.948245
H     -2.714942   -3.929288   -0.422878
H     -1.981566   -1.528490   -2.323053
H     -1.830399    0.828139   -1.707468
H      1.761214    2.208505    0.039224
H      1.847541    4.578590    0.659547
H     -2.479272    2.306303    0.728622
H      0.593344    9.525741    2.196357
H     -2.724366    9.729207    2.572997
H     -4.453678    7.652892    2.206648
H     -3.064999    5.547281    1.530648
H      1.382363    0.418507    2.351293
H      1.137734   -3.540689    1.283654
H      1.993988   -3.083196   -2.087306
