36

Si    -3.370472    4.356770   -1.756838
C     -2.031628    5.557088   -2.273825
C     -0.791805    5.080609   -2.066966
C     -0.758276    3.728830   -1.483327
C      0.412558    3.042343   -1.185865
C      0.330083    1.762963   -0.633581
C     -0.931395    1.172526   -0.379827
C     -1.049936   -0.119960    0.178094
N     -0.118240   -1.049758    0.580395
C     -0.725625   -2.184581    1.069829
C     -2.089740   -1.969084    0.975505
C     -2.296063   -0.685154    0.420965
N     -3.464690   -0.061408    0.150578
C     -3.336911    1.175414   -0.383296
C     -2.135904    1.848671   -0.672861
C     -2.026149    3.139798   -1.230192
C      0.004877   -3.319677    1.560614
S     -0.810155   -4.743301    2.174357
C      0.657060   -5.581053    2.537550
C      1.676700   -4.777467    2.191699
O      2.999549   -5.068353    2.318675
C      3.542269   -3.902932    1.816135
C      2.592412   -2.957834    1.407133
C      1.338267   -3.553087    1.662774
H     -4.163672    3.859499   -2.907656
H     -4.165787    4.852790   -0.606937
H     -2.281512    6.520964   -2.690186
H      0.117380    5.619534   -2.298797
H      1.383414    3.489725   -1.378128
H      1.251687    1.236372   -0.405382
H      0.877863   -0.911446    0.521589
H     -2.872541   -2.654250    1.270608
H     -4.298315    1.641498   -0.585420
H      0.694924   -6.571988    2.965398
H      4.624696   -3.890994    1.812112
H      2.822712   -1.990016    0.989562
