47

C      1.245014   -3.442026    5.502644
C      0.984484   -2.167469    6.257715
C      0.758194   -1.179580    5.382810
C      0.619201    0.240122    5.656619
C      0.530465    1.103736    4.621641
C      0.499380    0.562164    3.287909
S      0.400579    1.588271    1.927786
C      0.390085    0.258361    0.845582
C      0.357853   -0.970819    1.518726
C      0.568080   -0.793940    2.925475
C      0.787170   -1.711742    4.009490
C      1.142800   -3.008045    4.069751
C      0.183835   -2.150384    0.711267
C     -0.104132   -3.428618    1.022797
C     -0.167750   -4.273853   -0.213061
C      0.040406   -3.259996   -1.297267
C      0.223882   -2.035668   -0.753780
C      0.341387   -0.731592   -1.437691
C      0.352545   -0.604695   -2.832090
C      0.392186    0.677826   -3.385659
N      0.421381    1.810825   -2.630276
C      0.432428    1.656184   -1.281799
C      0.382429    0.427558   -0.626747
C      0.362352    0.900734   -4.822920
S      1.313444   -0.009425   -5.964713
C      0.673419    0.858567   -7.342395
C     -0.190689    1.806832   -6.874263
C     -1.056391    2.853589   -7.314279
C     -1.650652    3.409596   -6.162311
N     -1.201765    2.782152   -4.994112
C     -0.342444    1.845428   -5.504673
H      2.234730   -3.825449    5.713276
H      0.500054   -4.213002    5.729777
H      1.052192   -2.069886    7.332743
H      0.658874    0.594735    6.676337
H      0.490529    2.179480    4.791365
H      1.381330   -3.659488    3.247326
H     -0.313057   -3.827243    1.999914
H     -1.136458   -4.765399   -0.308231
H      0.628855   -5.024993   -0.213187
H     -0.010012   -3.509556   -2.346621
H      0.303705   -1.488644   -3.481607
H      0.493592    2.605233   -0.738338
H      0.964496    0.601962   -8.347012
H     -1.250598    3.174683   -8.335764
H     -2.400666    4.203657   -6.080517
H     -1.399940    2.960695   -4.011749
