37

C      4.677632    4.883309    0.797509
C      4.229528    5.987651    1.500310
N      2.990794    6.140730    2.008340
C      2.166663    5.095774    1.778903
S      0.564119    5.117319    2.348804
C      0.254084    3.578824    1.695745
N     -0.957387    3.004695    1.834441
C     -1.056065    1.778732    1.262268
C     -0.062990    1.083216    0.571568
C     -0.260806   -0.262085   -0.025063
C     -1.463043   -0.971430    0.043507
C     -1.486148   -2.227699   -0.570037
N     -2.498378   -3.153074   -0.674669
C     -2.075435   -4.260806   -1.370374
C     -2.752446   -5.429500   -1.712389
C     -2.004132   -6.350716   -2.429355
N     -0.714783   -6.183492   -2.796560
C     -0.077737   -5.037235   -2.451707
C     -0.744645   -4.041559   -1.726307
C     -0.375287   -2.756941   -1.219568
C      0.792091   -1.992501   -1.248707
N      0.830996   -0.770890   -0.657834
C      1.171077    1.752186    0.471920
C      1.351641    3.034293    1.043291
C      2.481531    3.927369    1.090885
C      3.795890    3.826902    0.582497
H      5.694849    4.843379    0.422764
H      4.897395    6.826924    1.682517
H     -2.047611    1.355056    1.398657
H     -2.345922   -0.592267    0.539227
H     -3.426602   -3.036876   -0.293245
H     -3.784206   -5.614492   -1.443863
H     -2.446149   -7.293819   -2.741752
H      0.955134   -4.949507   -2.768743
H      1.705970   -2.321277   -1.730305
H      2.004442    1.286100   -0.049523
H      4.115691    2.945291    0.034673
