41

Si     2.090382   -1.801120   -4.509923
C      2.910655   -1.187389   -6.115279
C      3.145886    0.140996   -6.063242
C      2.738312    0.776714   -4.847140
C      2.827755    2.087245   -4.469478
S      2.180208    2.306480   -2.889112
C      1.772098    0.624826   -2.701514
C      2.140697   -0.037867   -3.840545
C      1.150920    0.169006   -1.480978
C      0.744135   -1.117691   -1.113430
C      0.212520   -0.981023    0.161717
C     -0.365423   -1.884352    1.088354
C     -0.556053   -3.228610    0.936469
N     -1.152459   -3.655205    2.113894
C     -1.331151   -2.591277    2.987852
C     -0.839978   -1.488337    2.346855
C     -0.781933   -0.136735    2.805294
C     -1.174482    0.508151    3.985423
C     -1.777430    0.140737    5.204066
C     -2.016403    1.117570    6.178308
C     -1.665030    2.446646    5.956041
C     -1.065338    2.843236    4.757573
C     -0.829614    1.860087    3.788044
N     -0.255886    1.982096    2.528940
C     -0.227835    0.762671    1.931344
C      0.290908    0.324506    0.553330
O      0.862705    1.046709   -0.438369
H      2.971579   -2.745494   -3.779605
H      0.719018   -2.307932   -4.763324
H      3.132703   -1.863938   -6.924648
H      3.607142    0.693896   -6.873704
H      3.229655    2.928709   -5.015948
H      0.826081   -2.020541   -1.694954
H     -0.340289   -3.924963    0.138504
H     -1.421115   -4.610454    2.310561
H     -1.784278   -2.748541    3.955417
H     -2.058073   -0.889182    5.395464
H     -2.481898    0.832719    7.118653
H     -1.859861    3.189074    6.726684
H     -0.793717    3.880556    4.590110
H      0.086322    2.841177    2.122126
