40

C      3.515106    3.236049   -0.562803
C      3.027899    1.822218   -0.462762
N      2.099613    1.568701    0.491684
C      1.603322    0.315033    0.632204
N      0.660492    0.007574    1.609440
C     -0.223498    1.086331    2.039693
C     -1.255290    1.480361    0.971528
C     -2.189748    0.352505    0.595540
C     -3.250310   -0.005441    1.438766
C     -4.096665   -1.062293    1.099876
C     -3.890275   -1.771471   -0.081974
C     -2.838350   -1.424161   -0.927174
C     -1.992023   -0.366909   -0.591268
C      2.087870   -0.634507   -0.257525
O      1.744706   -1.950917   -0.347754
C      2.473073   -2.468642   -1.378169
C      2.426434   -3.792323   -1.810374
C      3.251291   -4.127530   -2.889669
C      4.074892   -3.174348   -3.495104
C      4.101112   -1.848931   -3.039030
C      3.279960   -1.490429   -1.953984
C      3.021924   -0.302808   -1.221473
N      3.523074    0.946046   -1.358649
H      4.537775    3.265426   -0.951158
H      3.508953    3.715939    0.420665
H      2.864937    3.801948   -1.236218
H      0.184221   -0.868898    1.403702
H      0.355600    1.967197    2.343048
H     -0.744911    0.745407    2.942293
H     -0.753441    1.857965    0.072116
H     -1.856580    2.318235    1.347228
H     -3.424514    0.536642    2.365427
H     -4.917607   -1.332983    1.758750
H     -4.549626   -2.594422   -0.344674
H     -2.675802   -1.976702   -1.848906
H     -1.173443   -0.110354   -1.260548
H      1.783437   -4.520468   -1.330669
H      3.251202   -5.149808   -3.263099
H      4.706707   -3.463374   -4.332723
H      4.742817   -1.110624   -3.511546
