37

C     -5.012987    0.981756    1.936857
C     -4.505028   -0.397040    1.568595
S     -2.770264   -0.620498    1.895080
O     -2.420154   -0.025388    3.170395
O     -2.394136   -1.984266    1.576080
C     -1.935967    0.360591    0.681416
N     -2.545769    1.012640   -0.295368
C     -1.556065    1.670324   -0.975577
C     -1.658725    2.519242   -2.087637
C     -0.493432    3.093910   -2.607291
C      0.748657    2.829232   -2.029910
C      0.869611    1.982325   -0.921735
C     -0.307203    1.412383   -0.419095
N     -0.570132    0.539724    0.617357
C      0.426022   -0.037405    1.515822
C      1.372856   -0.983874    0.810820
C      0.851857   -2.062296    0.068278
C      1.694091   -2.965935   -0.582759
C      3.073947   -2.820276   -0.494129
C      3.611123   -1.774876    0.253498
C      2.770370   -0.867283    0.907564
Cl     3.532318    0.382356    1.828096
H     -4.505922    1.766525    1.368856
H     -6.086172    1.056120    1.733495
H     -4.856158    1.187634    3.001037
H     -4.681562   -0.622607    0.512754
H     -5.027688   -1.152816    2.163959
H     -2.627984    2.722099   -2.530122
H     -0.559630    3.753564   -3.469487
H      1.642397    3.286770   -2.449945
H      1.841712    1.781364   -0.486024
H      0.925722    0.817607    1.977597
H     -0.067556   -0.585094    2.320492
H     -0.223693   -2.214256   -0.013012
H      1.268362   -3.785145   -1.157484
H      3.729953   -3.522393   -1.001464
H      4.691417   -1.673738    0.326636
