25

C     -0.575255   -0.311353    3.511841
C     -1.219770   -0.693136    2.347086
C     -0.845679   -0.124535    1.125549
C      0.204794    0.828106    1.014573
C      0.669294    1.446893   -0.190644
N      0.288907    1.013022   -1.496413
C     -0.076251   -0.251078   -1.916938
C     -0.355301   -0.175129   -3.260279
C     -0.069940    1.152624   -3.599605
N      0.360050    1.864992   -2.558841
C      1.585802    2.516143   -0.134430
C      2.125771    2.923752    1.078241
C      1.751001    2.276736    2.249620
C      0.796636    1.249004    2.237130
C      0.417405    0.662292    3.456523
H     -0.860953   -0.746688    4.465472
H     -2.025685   -1.421725    2.383136
H     -1.435240   -0.412873    0.260253
H     -0.063641   -1.099520   -1.250557
H     -0.677590   -0.977333   -3.908332
H     -0.135941    1.630349   -4.568872
H      1.923243    3.012389   -1.043650
H      2.850354    3.733215    1.107344
H      2.196716    2.603991    3.187229
H      0.887121    0.975794    4.387153
