37

N      1.510052    1.064316    4.316184
C      1.381480   -0.067632    4.094993
C      1.216768   -1.464106    3.867776
C      1.424287   -2.357235    4.899819
N      1.318553   -3.695517    4.771571
C      0.998757   -4.135710    3.548276
N      0.779809   -3.365021    2.473678
C      0.878821   -2.020163    2.643214
C      0.617627   -1.239538    1.419421
C      1.304564   -1.531041    0.232750
C      1.083658   -0.800164   -0.949156
C      0.166618    0.268762   -0.967516
C     -0.556712    0.541545    0.210527
C     -0.324509   -0.202714    1.383000
C     -1.555655    1.671352    0.263827
C     -1.975662    2.128692   -1.124653
C     -0.741737    2.286097   -1.997436
N     -0.068389    0.997005   -2.142794
C      0.942675    0.900233   -3.193773
C      1.294849   -0.557409   -3.440236
C      1.890657   -1.152954   -2.173716
H      1.695993   -2.019053    5.897742
H      0.909811   -5.208376    3.413713
H      2.028339   -2.345537    0.223707
H     -0.905737    0.037986    2.271696
H     -1.096869    2.508900    0.804038
H     -2.447131    1.361941    0.822042
H     -2.653683    1.389522   -1.570830
H     -2.523661    3.074845   -1.057705
H     -0.053633    3.029682   -1.575293
H     -1.052464    2.652587   -2.982929
H      1.833932    1.478802   -2.918941
H      0.549946    1.329159   -4.123207
H      2.007211   -0.647168   -4.267568
H      0.392351   -1.114016   -3.724578
H      2.910596   -0.773809   -2.033281
H      1.951380   -2.241890   -2.285933
