31

C      4.415038   -1.236985    1.704994
O      3.711418   -0.955051    0.503876
C      2.342921   -0.872990    0.571938
C      1.673184   -0.660074   -0.649248
O      2.469494   -0.555588   -1.763513
C      1.832590   -0.566238   -3.032784
C      0.276127   -0.553177   -0.665986
C      1.601768   -0.987920    1.751294
C      0.207910   -0.884963    1.724346
C     -0.467236   -0.661692    0.520109
C     -1.936762   -0.531397    0.503826
C     -2.490744    0.608010    0.047526
C     -3.976076    0.667507    0.077287
N     -4.776850   -0.259951    0.498393
C     -4.179456   -1.398542    0.959127
N     -4.736925   -2.487362    1.441891
C     -3.676455   -3.281991    1.740225
N     -2.473532   -2.771978    1.484608
N     -2.782103   -1.551078    0.972576
H      4.284241   -0.432870    2.436493
H      5.480601   -1.294694    1.462661
H      4.116382   -2.204687    2.121416
H      1.244965    0.345071   -3.183324
H      1.215413   -1.461597   -3.162233
H      2.613626   -0.587422   -3.798933
H     -0.253241   -0.388248   -1.598708
H      2.076664   -1.159909    2.711419
H     -0.342760   -0.984874    2.658247
H     -1.942328    1.465451   -0.319126
H     -4.410429    1.607488   -0.303434
H     -3.784433   -4.273253    2.162542
