51

C     -0.044737    1.074997    0.898077
C      1.372308    1.569960    1.147035
C      2.201939    1.398845    0.099903
C      1.411587    0.770832   -0.929895
C      0.089763    0.560490   -0.509633
C     -0.834257   -0.026533   -1.380309
O     -2.153543   -0.241149   -1.120028
C     -2.707548   -0.825164   -2.232938
C     -4.095011   -1.137467   -2.366313
C     -4.510414   -1.717640   -3.507292
C     -3.546914   -2.062217   -4.544374
C     -3.874050   -2.728288   -5.668463
Si    -2.354990   -3.114010   -6.679606
C     -1.323805   -2.277691   -5.363459
C     -2.089656   -1.755842   -4.388179
C     -1.707295   -1.053127   -3.197944
C     -0.553707   -0.465715   -2.669857
C      0.784131   -0.211411   -3.142147
C      1.385930   -0.362769   -4.355423
N      2.685934    0.081810   -4.187384
C      2.876164    0.544022   -2.898630
C      1.687237    0.387390   -2.228148
C      1.747309    2.174164    2.425796
C      1.761176    3.575515    2.492788
C      2.096594    4.223031    3.677115
C      2.424706    3.475947    4.805927
C      2.428706    2.072914    4.767138
C      2.768277    1.334700    5.913458
C      2.785299   -0.059272    5.891749
C      2.465402   -0.734878    4.721618
C      2.124668   -0.015808    3.574013
C      2.091744    1.398922    3.566094
H     -0.769603    1.893221    0.945843
H     -0.323053    0.267709    1.581495
H      3.242931    1.663121    0.022916
H     -4.777145   -0.886008   -1.563453
H     -5.556092   -1.964711   -3.654805
H     -4.852900   -3.067107   -5.968318
H     -2.327076   -2.380726   -7.967967
H     -2.086416   -4.569252   -6.768546
H     -0.253868   -2.291488   -5.433783
H      1.056594   -0.694330   -5.325583
H      3.388402    0.098983   -4.915259
H      3.830807    0.954743   -2.599292
H      1.503609    4.168625    1.617595
H      2.101165    5.308749    3.721678
H      2.682884    4.001131    5.723182
H      3.025920    1.845053    6.839114
H      3.051135   -0.614475    6.787182
H      2.481096   -1.821218    4.695557
H      1.887492   -0.576693    2.672268
