33

C      0.962615   -0.179778   -4.051815
O      1.855087   -0.147132   -2.936929
C      1.619582    0.887226   -2.072384
O      0.756302    1.737774   -2.229155
C      2.569803    0.787462   -0.915034
C      2.627261    1.998298   -0.021152
O      2.699612    3.167505   -0.356077
N      2.688899    1.572093    1.291259
C      2.798400    0.148132    1.396843
C      2.266056   -0.373601    0.057942
C      0.812595   -0.814097    0.155665
C     -0.217942    0.060857    0.529151
C     -1.546797   -0.376403    0.595881
C     -1.868834   -1.697546    0.294016
O     -3.119545   -2.249299    0.319438
C     -4.197083   -1.378910    0.641948
C     -0.849587   -2.575636   -0.073867
C      0.476808   -2.141739   -0.145142
H      1.222472   -1.045120   -4.667717
H      1.074663    0.723898   -4.658923
H     -0.071456   -0.295363   -3.711961
H      3.588106    0.681458   -1.314730
H      2.868102    2.237982    2.034201
H      3.861904   -0.086526    1.515334
H      2.252676   -0.203823    2.276864
H      2.861493   -1.247970   -0.236773
H     -0.012209    1.104098    0.762340
H     -2.303586    0.346514    0.882353
H     -4.096559   -0.987474    1.659639
H     -4.282306   -0.567304   -0.088285
H     -5.121847   -1.962446    0.600051
H     -1.091730   -3.608573   -0.312356
H      1.240607   -2.856466   -0.444235
