39

C      4.326777    4.080310   -2.461725
C      3.657300    5.307035   -2.385733
C      2.331871    5.168894   -1.909452
C      1.334141    6.052073   -1.683982
S     -0.030563    5.173452   -1.106659
C      0.789417    3.657398   -1.182141
C      0.154348    2.410397   -0.787525
C     -1.032053    1.979948   -1.366962
N     -1.673434    0.829271   -1.044957
C     -1.129894    0.047102   -0.100572
C     -1.780470   -1.136272    0.235842
C     -1.249017   -1.986795    1.219946
C     -0.059202   -1.614341    1.846215
C      0.630821   -0.443327    1.547787
C      0.074913    0.388312    0.558017
C      0.705486    1.587523    0.196083
O      0.330867   -2.540984    2.778142
C     -0.608801   -3.536456    2.769294
C     -0.614551   -4.701184    3.571850
C     -1.664652   -5.641465    3.442770
C     -2.603264   -5.265923    2.485038
C     -3.732191   -5.963165    2.128984
O     -4.418298   -5.283803    1.148446
C     -3.719463   -4.132237    0.870065
C     -2.625709   -4.119676    1.674309
C     -1.561595   -3.200250    1.828260
C      2.068562    3.824526   -1.643648
S      3.413781    2.660518   -1.967425
H      5.343046    3.917952   -2.794816
H      4.124646    6.242361   -2.668985
H      1.304715    7.124553   -1.815501
H     -1.524008    2.560785   -2.143693
H     -2.704440   -1.390335   -0.274581
H      1.552717   -0.200060    2.063325
H      1.628958    1.883217    0.690297
H      0.188470   -4.867645    4.283905
H     -1.711525   -6.546295    4.034684
H     -4.181718   -6.895503    2.440726
H     -4.145174   -3.493041    0.110813
