34

C      1.021224    0.371188   -2.985274
C      0.074852    0.445354   -1.831399
C     -1.312945    0.358288   -1.835556
C     -2.161815    0.166200   -3.003055
O     -1.754163    0.032571   -4.153675
C     -1.755734    0.488305   -0.481848
C     -3.027864    0.491134    0.134359
C     -3.132198    0.637819    1.520704
C     -1.991588    0.778561    2.300173
C     -0.721355    0.776700    1.717978
C     -0.622110    0.631462    0.321744
N      0.481290    0.582053   -0.515805
C      1.868302    0.690432   -0.058910
C      2.603287   -0.630377   -0.100117
C      2.099989   -1.765894    0.558456
C      2.802059   -2.972201    0.530138
C      4.012127   -3.045731   -0.147056
F      4.686164   -4.202864   -0.171828
C      4.535814   -1.934655   -0.795425
C      3.835604   -0.727113   -0.769150
H      1.981230    0.848663   -2.776110
H      0.610586    0.883359   -3.860708
H      1.206761   -0.674244   -3.251190
H     -3.244518    0.140897   -2.797254
H     -3.932607    0.380771   -0.456602
H     -4.112920    0.640347    1.990090
H     -2.086484    0.890076    3.378035
H      0.156572    0.881793    2.347235
H      1.884228    1.083631    0.961910
H      2.351469    1.448126   -0.685901
H      1.152380   -1.723311    1.092313
H      2.411493   -3.852665    1.030307
H      5.484585   -2.015737   -1.316257
H      4.257992    0.136225   -1.279480
