32

O     -0.576509   -1.924668   -0.350752
C      0.110314   -1.117466   -0.966516
C      1.333291   -1.556095   -1.663491
C      1.720911   -2.901613   -1.646097
C      2.882727   -3.298103   -2.311849
C      3.642545   -2.344970   -2.986102
O      4.783328   -2.688390   -3.648711
C      3.262052   -1.006372   -3.006282
C      2.101613   -0.612942   -2.341410
O      1.770172    0.716080   -2.389756
C      0.624087    1.112030   -1.743646
C     -0.227652    0.332179   -1.058181
C     -1.417543    0.911243   -0.405932
C     -2.285015    1.761264   -1.105883
C     -3.405879    2.310540   -0.475115
C     -3.687337    2.019403    0.860470
O     -4.812043    2.620937    1.352859
C     -5.163638    2.320210    2.697605
C     -2.835034    1.169782    1.563023
C     -1.710439    0.620369    0.933038
H      1.119511   -3.637938   -1.116673
H      3.174867   -4.343764   -2.293088
H      4.927237   -3.644845   -3.555297
H      3.866949   -0.276876   -3.536936
H      0.502543    2.182649   -1.861187
H     -2.109184    1.998369   -2.152635
H     -4.069743    2.966533   -1.033171
H     -6.085924    2.861034    2.930746
H     -5.363574    1.251051    2.824520
H     -4.391271    2.664185    3.393423
H     -3.013435    0.907191    2.600308
H     -1.066774   -0.046838    1.504116
