34

C      3.178385   -6.019328   -2.490315
C      3.285366   -6.676059   -1.285820
S      2.634842   -5.759735    0.002412
C      2.200360   -4.468475   -1.038525
C      2.552599   -4.746538   -2.346458
C      1.552832   -3.265518   -0.570428
C      1.174973   -2.933525    0.738265
C      0.589001   -1.655829    0.632624
S     -0.181579   -0.287195    1.365800
C     -0.377061    0.645344   -0.086549
C      0.157747   -0.142070   -1.050009
O      0.129309    0.361222   -2.290274
C     -0.479706    1.577769   -2.088364
C     -0.737937    2.489575   -3.110945
C     -1.365094    3.690514   -2.757802
C     -1.724801    3.977421   -1.430461
C     -2.352972    5.184636   -1.088944
C     -2.706336    5.459245    0.235320
C     -2.438489    4.533010    1.241417
C     -1.815159    3.324940    0.930953
C     -1.455007    3.038715   -0.401000
C     -0.820415    1.819072   -0.745870
C      0.656668   -1.331658   -0.675332
O      1.223829   -2.250161   -1.463764
H      3.530540   -6.429107   -3.429052
H      3.714365   -7.650842   -1.098163
H      2.367801   -4.062341   -3.166968
H      1.307780   -3.532204    1.627394
H     -0.461887    2.271831   -4.136453
H     -1.573547    4.413069   -3.545566
H     -2.574130    5.925969   -1.853963
H     -3.192523    6.400283    0.480937
H     -2.715632    4.752118    2.269523
H     -1.614771    2.615538    1.729606
