30

C      2.386807   -2.735724    4.075538
O      1.445952   -2.799570    3.010923
C      0.924554   -1.612834    2.577199
C      0.003602   -1.723939    1.535027
C     -0.609786   -0.587824    0.992630
C     -0.307456    0.689111    1.478508
C     -0.923089    1.918627    0.960450
N     -1.014420    3.056916    1.637664
N     -1.614485    4.003268    0.845201
C     -1.877952    3.427832   -0.298137
N     -1.482052    2.110855   -0.299719
N     -1.534588    1.202964   -1.330002
C     -2.286493    1.503998   -2.348701
C     -2.307468    0.524284   -3.499811
C     -3.235265    2.682902   -2.456274
S     -2.559089    4.165266   -1.696837
C      0.613012    0.786714    2.535054
C      1.226725   -0.349812    3.078685
H      3.275754   -2.166960    3.783323
H      2.705370   -3.757896    4.301654
H      1.931105   -2.321129    4.980829
H     -0.244469   -2.706724    1.140872
H     -1.331791   -0.733693    0.194597
H     -2.085187    1.052419   -4.430920
H     -1.564489   -0.264320   -3.352017
H     -3.300893    0.072905   -3.568906
H     -4.176426    2.408492   -1.968651
H     -3.445968    2.892105   -3.509016
H      0.863343    1.763773    2.947997
H      1.930792   -0.206728    3.891397
