43

C      4.654207    1.763956    0.187403
C      3.375361    1.739066    0.981404
C      3.370713    2.341347    2.246873
C      2.222424    2.335877    3.027355
C      1.056092    1.744108    2.546163
C      0.999622    1.160867    1.272983
N     -0.172641    0.524252    0.800099
C     -1.533823    0.637722    1.182754
N     -1.909639    1.516483    2.144418
C     -3.208433    1.567677    2.514664
C     -4.195064    0.764691    1.976564
C     -3.826276   -0.147968    0.998214
C     -2.483990   -0.222828    0.600772
C     -2.079741   -1.169699   -0.466910
O     -1.228153   -0.838986   -1.286366
N     -2.693991   -2.404099   -0.449752
C     -2.239605   -3.475740   -1.309674
C     -1.271330   -4.315261   -0.537541
C      0.059392   -4.054193   -0.270391
C      0.668923   -5.080126    0.506625
C     -0.214634   -6.092534    0.805761
S     -1.769373   -5.801057    0.156422
C      2.194920    1.117264    0.498714
C      2.189283    0.429774   -0.848373
H      4.483992    2.209076   -0.798132
H      5.424413    2.365683    0.682065
H      5.050540    0.749898    0.074694
H      4.269100    2.813361    2.638043
H      2.229209    2.790066    4.014080
H      0.186305    1.743240    3.195167
H     -0.136206    0.321822   -0.200188
H     -3.438082    2.301870    3.282237
H     -5.224504    0.855927    2.304671
H     -4.584859   -0.771315    0.534121
H     -3.200323   -2.681704    0.380420
H     -1.766499   -3.073061   -2.211497
H     -3.122834   -4.046212   -1.614713
H      0.567600   -3.158973   -0.612269
H      1.702429   -5.073302    0.830680
H     -0.023186   -6.990147    1.377651
H      1.786378   -0.584697   -0.756063
H      3.186688    0.318216   -1.280033
H      1.583324    1.003125   -1.557385
