42

C      1.966987    1.881520    0.670839
C      1.566010    2.138286    2.005194
C      0.432769    1.387560    2.280236
N      0.164452    0.691755    1.118760
C      1.080562    0.974600    0.128982
C      1.028207    0.379407   -1.185592
S     -0.207306   -0.736257   -1.590969
C      0.334584   -1.006288   -3.210650
C     -0.383485   -1.941075   -4.123961
C      0.043520   -2.178571   -5.461101
C     -0.586635   -3.050255   -6.384167
C     -1.727288   -3.791012   -6.071310
C     -2.227664   -3.621835   -4.763091
N     -3.311943   -4.247778   -4.280441
S     -3.497492   -3.731712   -2.720930
N     -2.217980   -2.696415   -2.587289
C     -1.558144   -2.686887   -3.761400
C      1.468310   -0.228359   -3.421092
N      2.158584   -0.199543   -4.602259
C      3.225363    0.637826   -4.550966
C      3.598826    1.392435   -3.440558
N      2.947531    1.395939   -2.253251
C      1.863566    0.561922   -2.265684
C     -0.379840    1.283184    3.505027
C     -0.039388    2.025260    4.647264
C     -0.796657    1.941415    5.820457
C     -1.911492    1.111546    5.872999
C     -2.267830    0.366803    4.753237
C     -1.508971    0.451864    3.580081
H      2.818304    2.319369    0.165555
H      2.066259    2.810106    2.689820
H     -0.603489    0.049948    0.990324
H      0.924834   -1.665449   -5.843274
H     -0.158518   -3.144084   -7.382824
H     -2.203087   -4.455130   -6.782395
H      3.806210    0.694881   -5.467285
H      4.470141    2.039378   -3.486292
H      0.824654    2.684118    4.643711
H     -0.511589    2.526478    6.690894
H     -2.500618    1.045468    6.783631
H     -3.138247   -0.283395    4.788917
H     -1.827861   -0.148668    2.734230
