29

C      0.574530   -3.640193    0.510783
C      0.624886   -2.134828    0.503052
C     -0.628757   -1.481545    0.833567
C     -0.752999   -0.145059    0.798345
C     -2.056447    0.532807    1.117452
N      0.338521    0.634138    0.442671
N      0.178201    1.999082    0.517486
C      0.537161    2.727735   -0.503515
C      0.886287    2.327212   -1.845858
C      1.502946    3.037228   -2.859723
C      1.573490    2.174378   -3.980163
C      0.981388    0.997149   -3.592145
O      0.551131    1.082533   -2.308327
C      1.631409    0.101525    0.255928
O      2.652062    0.781494    0.128884
C      1.716789   -1.393138    0.221152
C      2.974902   -1.967336   -0.109161
N      3.973522   -2.495601   -0.378993
H      1.530013   -4.106392    0.254605
H     -0.165378   -3.999783   -0.213093
H      0.291265   -4.006504    1.503910
H     -1.476360   -2.106385    1.104757
H     -1.948593    1.191913    1.985368
H     -2.844463   -0.190624    1.354058
H     -2.404195    1.124437    0.263857
H      0.523319    3.818128   -0.334670
H      1.870699    4.051819   -2.792071
H      2.003504    2.383362   -4.949716
H      0.795930    0.053649   -4.086456
