30

N      2.119341    0.223609    6.887363
C      1.885304   -0.009190    5.527966
C      2.914680   -0.465486    4.703534
C      2.724679   -0.588687    3.322355
C      1.515866   -0.204452    2.732586
C      1.345426   -0.374147    1.282902
C      0.703829    0.507911    0.499287
C      0.533067    0.340223   -0.950469
C      1.555677   -0.161065   -1.769251
C      1.370617   -0.281485   -3.150515
C      0.154456    0.113084   -3.720455
N     -0.045590   -0.010960   -5.169545
O      0.884234   -0.478893   -5.842304
O     -1.132834    0.359134   -5.635484
C     -0.870241    0.630272   -2.919232
C     -0.673115    0.746472   -1.539461
C      0.499639    0.295161    3.553997
C      0.695240    0.415034    4.934924
H      1.275848    0.245856    7.451603
H      2.836107   -0.372508    7.288907
H      3.878300   -0.732933    5.128656
H      3.541273   -0.966815    2.711855
H      1.787171   -1.276127    0.866403
H      0.264628    1.409065    0.921293
H      2.513025   -0.452559   -1.341732
H      2.180741   -0.676000   -3.760411
H     -1.819577    0.946081   -3.346906
H     -1.476031    1.149994   -0.924727
H     -0.455557    0.599284    3.134172
H     -0.098348    0.839232    5.544124
