30

O     -4.499168   -1.313477    0.643874
C     -4.235679   -0.029909    1.035004
C     -2.957964    0.540093    1.063015
C     -1.755951   -0.253574    0.743779
N     -0.598175    0.292573    0.539813
N      0.349178   -0.686288    0.250357
C      1.517191   -0.160977    0.058667
C      2.737436   -0.933003   -0.266219
C      2.776408   -2.323399   -0.427196
O      1.649712   -3.083637   -0.295637
C      3.983409   -2.961235   -0.731721
C      5.153981   -2.215044   -0.876990
C      5.123248   -0.831612   -0.719237
C      3.920027   -0.191805   -0.415112
C     -2.810526    1.883364    1.435705
C     -3.927462    2.641038    1.794088
C     -5.194566    2.060390    1.785257
C     -5.347634    0.725986    1.407435
H     -3.796496   -1.625237    0.049721
H     -1.868426   -1.350029    0.682247
H      1.642706    0.934870    0.138425
H      1.868795   -4.020908   -0.409762
H      4.029861   -4.038763   -0.860788
H      6.090665   -2.713972   -1.114024
H      6.035137   -0.250177   -0.832477
H      3.915940    0.889102   -0.294805
H     -1.824636    2.342558    1.462346
H     -3.806260    3.680939    2.087184
H     -6.064777    2.646699    2.069466
H     -6.337295    0.276478    1.392892
