36

C     -3.614186    5.667870    2.877025
N     -4.058006    5.652162    1.640087
C     -3.303090    4.760080    0.902153
C     -2.289706    4.112529    1.584563
S     -2.293155    4.631126    3.221879
C     -1.322152    3.137353    1.119930
C     -1.229986    1.821185    1.633367
C     -0.295599    0.845981    1.163752
C      0.644124    1.086992    0.133470
C      1.604899    0.101843   -0.321724
C      2.983163    0.121615   -0.286235
N      3.614013   -0.983187   -0.818645
C      2.725386   -1.857897   -1.260223
S      1.081802   -1.364303   -1.035929
C      3.049026   -3.141359   -1.921106
C      2.192367   -4.242925   -1.930511
C      2.591692   -5.407295   -2.586346
C      3.831058   -5.448083   -3.209840
C      4.627361   -4.318505   -3.149962
N      4.265874   -3.177371   -2.525568
C      0.559681    2.393841   -0.383520
C      1.340586    2.882357   -1.406633
S      0.974120    4.520407   -1.765120
C     -0.249489    4.586760   -0.562857
C     -0.392158    3.384502    0.092128
H     -4.053667    6.296715    3.640247
H     -3.537740    4.617016   -0.145992
H     -1.909568    1.520083    2.431708
H     -0.310425   -0.134320    1.642463
H      3.587126    0.925455    0.117025
H      1.228915   -4.220500   -1.433005
H      1.939257   -6.276281   -2.606405
H      4.171120   -6.338667   -3.726813
H      5.608194   -4.297070   -3.616708
H      2.113500    2.384087   -1.976159
H     -0.785778    5.514904   -0.417077
