20

N     -0.348097    3.082424    1.014223
C      0.601303    2.041744    0.993770
C      1.804117    2.226292    1.691151
C      2.819227    1.268463    1.646336
C      2.662857    0.125954    0.869278
C      1.500900   -0.046552    0.117672
C      0.478140    0.916978    0.148630
C     -0.682585    0.705596   -0.692200
C     -1.560981   -0.390787   -0.809036
N     -2.499559   -0.189028   -1.738172
O     -2.224502    1.064157   -2.266700
C     -1.136506    1.584823   -1.645126
H     -1.294853    2.765761    0.820233
H     -0.310095    3.649803    1.855633
H      1.957437    3.122969    2.286728
H      3.735341    1.422592    2.210874
H      3.453731   -0.618737    0.828797
H      1.412761   -0.926872   -0.515814
H     -1.563854   -1.320828   -0.258423
H     -0.821666    2.560235   -1.986732
