32

N     -3.265895   -2.185414   -2.463430
C     -2.424772   -1.732496   -1.599311
C     -2.693876   -0.551380   -0.736897
C     -1.701076   -0.108795    0.149851
C     -1.937253    1.007456    0.967754
C     -3.154087    1.682012    0.909169
C     -4.143659    1.247315    0.035180
C     -3.920741    0.137482   -0.785356
C     -0.390601   -0.798118    0.249268
N      0.514678   -0.353012    1.062666
C      1.731633   -1.051451    1.106541
C      2.748671   -0.586209    1.936596
C      3.974862   -1.257310    1.998489
C      4.188429   -2.429075    1.266940
N      5.454774   -3.019126    1.239815
C      3.189542   -2.864793    0.394072
C      1.967970   -2.190239    0.329940
O      1.020951   -2.684933   -0.536280
C     -0.181870   -1.995386   -0.611567
C     -1.122969   -2.420166   -1.458525
H     -4.181830   -1.770497   -2.630940
H     -3.062652   -2.997972   -3.049325
H     -1.173156    1.361531    1.660110
H     -3.326722    2.546537    1.548535
H     -5.093748    1.779357   -0.003464
H     -4.739665   -0.144590   -1.438958
H      2.594419    0.312288    2.528065
H      4.764103   -0.852933    2.628000
H      6.015527   -2.848162    2.069973
H      5.464202   -3.997119    0.967931
H      3.360852   -3.727981   -0.242043
H     -0.912447   -3.297972   -2.064276
