23

C      0.581833   -3.461846   -2.826368
C      1.380202   -3.881205   -1.783456
C      1.290214   -2.874824   -0.800058
N      1.861444   -2.754346    0.428824
C      1.533046   -1.620249    1.103623
C      1.913780   -1.144609    2.376506
C      1.281251    0.070968    2.564193
C      1.403902    0.967033    3.826920
C      0.757787    2.175598    3.980599
S      1.151705    2.852154    5.509257
C      2.140496    1.488280    5.831560
N      2.194870    0.575411    4.887544
N      0.532279    0.343020    1.446505
C      0.674414   -0.675699    0.548524
N      0.092194   -0.763534   -0.663867
C      0.435778   -1.897416   -1.309429
O      0.004053   -2.259041   -2.548831
H      0.330197   -3.883063   -3.790268
H      1.954223   -4.794169   -1.735463
H      2.575140   -1.631133    3.080720
H      0.093574    2.690556    3.303579
H      2.685934    1.391019    6.761277
H     -0.040570    1.157936    1.288199
