39

C     -3.888655   -0.163359   -3.504796
C     -3.655426    0.141758   -2.167334
C     -2.354265    0.123812   -1.623257
C     -2.143147    0.382664   -0.199780
C     -1.748187   -0.637376    0.666467
C     -1.592921   -0.273329    2.003003
N     -1.212635   -1.017666    3.093997
C     -1.190286   -0.241320    4.228281
C     -0.866421   -0.567696    5.543462
C     -0.955260    0.481447    6.445666
N     -1.321974    1.743473    6.132712
C     -1.632862    2.036203    4.845568
C     -1.574386    1.047112    3.855245
C     -1.829854    1.025633    2.448390
C     -2.240634    1.982301    1.513413
N     -2.397196    1.650604    0.207752
C     -1.261212   -0.175957   -2.483198
C     -1.539711   -0.494042   -3.816802
C     -2.833777   -0.499445   -4.351437
N     -0.343162   -0.775291   -4.432456
C      0.706185   -0.622957   -3.562909
C      2.070373   -0.789975   -3.765369
N      2.922844   -0.552943   -2.744745
C      2.422383   -0.142675   -1.560410
C      1.073732    0.039599   -1.292242
C      0.172659   -0.226487   -2.337516
H     -4.904922   -0.142526   -3.891381
H     -4.496719    0.395807   -1.524115
H     -1.570206   -1.646803    0.315037
H     -0.980032   -2.000387    3.065927
H     -0.567276   -1.561842    5.848384
H     -0.721836    0.324182    7.495957
H     -1.921228    3.061454    4.643531
H     -2.451098    3.013640    1.772827
H     -3.017215   -0.742574   -5.393444
H     -0.250908   -1.038341   -5.402787
H      2.504987   -1.098762   -4.708055
H      3.166344    0.051030   -0.792135
H      0.750695    0.391075   -0.320520
