42

C      5.144483   -1.499475    1.439528
C      4.191923   -0.669931    0.835727
C      4.504124   -0.368951   -0.520188
C      3.919533    0.375402   -1.494223
S      4.949523    0.318229   -2.881231
C      6.097854   -0.714190   -2.120312
C      5.712929   -0.989430   -0.840392
S      6.503406   -1.983784    0.436288
C      2.687671    1.106456   -1.497319
C      2.340878    2.273971   -2.147062
C      0.991379    2.582214   -1.818676
C      0.122429    3.631136   -2.168560
C     -1.185063    3.644026   -1.664727
C     -1.652711    2.631097   -0.817602
C     -2.969716    2.651174   -0.315931
C     -3.465989    1.648816    0.533586
C     -4.826874    1.710329    1.025277
C     -5.435142    0.760546    1.883003
C     -4.542555   -0.252077    2.194690
C     -4.803074   -1.330845    2.998781
N     -3.650087   -2.086108    3.039268
C     -2.664628   -1.497742    2.271868
C     -3.198185   -0.351141    1.734165
C     -2.570823    0.585675    0.878221
C     -1.246984    0.540259    0.391201
C     -0.792993    1.565403   -0.455583
C      0.527733    1.573735   -0.974003
N      1.574735    0.692623   -0.807036
H      5.132705   -1.863094    2.458223
H      3.331088   -0.298849    1.377234
H      6.988262   -1.062750   -2.624882
H      2.989755    2.859002   -2.786073
H      0.459788    4.427936   -2.825273
H     -1.839198    4.466019   -1.948720
H     -3.625402    3.473810   -0.598225
H     -5.444954    2.555205    0.714817
H     -6.454769    0.837196    2.230898
H     -5.685248   -1.638713    3.543231
H     -3.542500   -2.948668    3.556845
H     -1.690600   -1.958477    2.189740
H     -0.602805   -0.282757    0.676216
H      1.519710   -0.158028   -0.268069
