40

C      2.497849   -6.775157   -1.054970
O      1.865465   -5.697933   -0.364580
C      1.174683   -6.074335    0.750370
O      1.092468   -7.232983    1.143987
C      0.548481   -4.935418    1.413907
C     -0.229681   -5.022379    2.584588
C     -0.721625   -3.772193    3.024702
C     -1.477802   -3.401706    4.080857
S     -1.677397   -1.693692    4.012466
C     -0.759986   -1.542395    2.553607
C     -0.539118   -0.277538    1.913733
C     -0.079193    0.879320    2.501896
C      0.023072    1.999943    1.597795
C     -0.390203    1.638943    0.316520
S     -0.885516   -0.020402    0.270270
C     -0.387193    2.554050   -0.761814
C     -0.847697    2.098660   -2.130463
C      0.036410    3.888083   -0.533509
C      0.123937    5.011306   -1.435900
C      0.585356    6.159011   -0.841449
S      0.923010    5.919009    0.803121
C      0.449295    4.249690    0.749636
C      0.457203    3.330763    1.824807
C      0.918286    3.786219    3.193140
C     -0.297068   -2.770553    2.153832
S      0.734751   -3.302954    0.771220
H      3.236113   -7.263210   -0.410968
H      3.017078   -6.362022   -1.924129
H      1.752698   -7.495236   -1.407389
H     -0.413783   -5.969983    3.079857
H     -1.911351   -3.993797    4.874615
H      0.186183    0.925641    3.550866
H     -1.911061    1.839675   -2.098600
H     -0.273585    1.223444   -2.452126
H     -0.715986    2.866687   -2.896079
H     -0.143864    4.977056   -2.484181
H      0.738720    7.126309   -1.299766
H      0.924237    2.977423    3.927236
H      0.252366    4.569247    3.570612
H      1.939006    4.178541    3.136183
