29

C      4.119010   -3.413875   -2.161937
C      4.600060   -3.798282   -0.918161
C      4.021500   -3.299829    0.251351
C      2.942051   -2.400794    0.147878
S      2.079050   -1.663480    1.433993
C      1.025684   -0.799002    0.386409
C     -0.035722    0.093576    0.916832
C     -0.248740    0.289859    2.287540
C     -1.261323    1.140737    2.747066
C     -2.088653    1.818939    1.867868
N     -3.053117    2.629955    2.346864
C     -3.819193    3.256529    1.428729
C     -3.632210    3.082173    0.073489
N     -2.670964    2.273613   -0.422877
C     -1.895044    1.638605    0.479044
C     -0.883865    0.789127    0.037183
C      1.347123   -1.084986   -0.930939
C      2.442164   -2.000559   -1.088658
C      3.047275   -2.521170   -2.257951
H      4.575828   -3.807195   -3.066830
H      5.434008   -4.493015   -0.850661
H      4.399224   -3.601729    1.224023
H      0.361461   -0.208990    3.036612
H     -1.404950    1.275055    3.816599
H     -4.593369    3.907589    1.817669
H     -4.252284    3.589517   -0.656362
H     -0.775524    0.684159   -1.038943
H      0.826298   -0.662042   -1.780364
H      2.678605   -2.226908   -3.237414
