45

C     -2.946328    2.369728    2.795336
C     -3.254639    3.641684    2.022060
C     -3.912793    3.411554    0.657047
C     -3.020847    2.698432   -0.360088
O     -2.968095    1.308140   -0.046295
C     -2.184191    0.517017   -0.837333
C     -1.461413    0.929053   -1.955359
C     -0.683774    0.010876   -2.677428
C     -0.622182   -1.325195   -2.287838
O      0.094318   -2.321134   -2.883217
C      0.972883   -2.017660   -3.969089
C      2.406545   -1.791925   -3.478091
N      2.581821   -0.413234   -2.963076
S      3.911924   -0.132216   -1.981064
O      4.171422    1.282945   -2.098361
O      4.918368   -1.113791   -2.303579
N      3.278645   -0.441793   -0.462666
C      2.267134    0.500143    0.041942
C      3.013339   -1.833513   -0.080523
C     -1.357867   -1.735507   -1.174269
C     -2.131050   -0.822339   -0.453739
H     -2.136358    1.802990    2.327856
H     -3.828974    1.726843    2.868013
H     -2.624598    2.618604    3.811944
H     -2.333193    4.222287    1.896891
H     -3.932470    4.256114    2.627109
H     -4.182129    4.393249    0.248854
H     -4.843015    2.847791    0.796518
H     -2.017100    3.139574   -0.346245
H     -3.464972    2.824829   -1.354799
H     -1.475273    1.959180   -2.295861
H     -0.133938    0.387888   -3.531378
H      0.977441   -2.919155   -4.593494
H      0.607933   -1.214679   -4.616920
H      3.095281   -1.924347   -4.319840
H      2.640559   -2.529873   -2.706946
H      2.608638    0.285472   -3.706378
H      2.591536    1.536350   -0.086442
H      2.119650    0.347449    1.116253
H      1.309402    0.353827   -0.460431
H      2.037946   -2.164258   -0.447118
H      3.018005   -1.919649    1.011140
H      3.790066   -2.507569   -0.451053
H     -1.328791   -2.776067   -0.860556
H     -2.694958   -1.159297    0.412456
