40

C     -1.615975    5.968768   -1.110547
C     -2.422856    5.304726   -0.213885
N     -2.209006    4.017235    0.124328
C     -1.166955    3.401532   -0.452247
N     -0.935868    2.122895   -0.128350
C      0.118517    1.495903   -0.705523
C      0.339166    0.087952   -0.319720
C      1.606998   -0.513917   -0.355558
C      1.802315   -1.857428    0.021231
C      0.717862   -2.656184    0.425089
C     -0.556552   -2.064849    0.462188
C     -0.730190   -0.712822    0.112140
C     -1.754292   -2.861255    0.914335
C     -1.525265   -4.353361    0.720571
C     -0.199478   -4.753064    1.348960
N      0.900015   -3.985622    0.777379
C      2.202687   -4.621642    0.630723
C      3.326309   -3.632727    0.898062
C      3.192232   -2.440380   -0.038301
C      0.910628    2.181462   -1.616331
N      0.703008    3.473697   -1.961898
C     -0.332042    4.090799   -1.383379
N     -0.563821    5.371327   -1.704887
H     -1.791541    7.004374   -1.379553
H     -3.268465    5.788933    0.261684
H      2.480675    0.062293   -0.652896
H     -1.729875   -0.281309    0.170136
H     -2.644601   -2.563038    0.348322
H     -1.940321   -2.642199    1.972805
H     -2.346655   -4.921167    1.171157
H     -1.512936   -4.592179   -0.350943
H     -0.226139   -4.594330    2.433997
H     -0.040527   -5.825384    1.183767
H      2.298324   -5.461655    1.329059
H      2.289774   -5.033906   -0.381983
H      3.280145   -3.294277    1.941440
H      4.299405   -4.115217    0.755180
H      3.399871   -2.744913   -1.071274
H      3.933800   -1.683887    0.244096
H      1.746015    1.710356   -2.123406
