41

Si    -2.403671    2.866316    3.377472
C     -3.516972    1.378145    3.278580
C     -3.046624    0.469403    2.400756
C     -3.646810   -0.790047    2.074596
C     -4.848893   -1.350496    2.593719
C     -5.113651   -2.585139    2.044068
S     -3.919923   -3.055539    0.914821
C     -3.028750   -1.612775    1.144043
C     -1.766300   -1.294404    0.437288
C     -1.176890   -2.161231   -0.497862
C      0.021143   -1.828229   -1.150985
C      0.610228   -2.697589   -2.081573
C      1.801917   -2.355545   -2.725454
C      2.425945   -1.134295   -2.458144
C      1.846892   -0.267097   -1.522162
C      0.647867   -0.598278   -0.865405
C      0.063171    0.270921    0.070795
C     -1.134591   -0.056579    0.727272
C     -1.775058    0.850122    1.724482
C     -1.297424    2.055486    2.105974
C      3.671383   -0.790160   -3.133306
C      4.848628   -1.442192   -3.032984
C      5.934679   -0.889388   -3.827911
C      5.616892    0.193672   -4.560345
Si     3.811282    0.673784   -4.323762
H     -3.048850    4.096510    2.859825
H     -1.742648    2.997462    4.697827
H     -4.412109    1.310868    3.874920
H     -5.491137   -0.883374    3.329169
H     -5.951972   -3.235821    2.250895
H     -1.646481   -3.113862   -0.730344
H      0.145299   -3.653363   -2.314063
H      2.234853   -3.049565   -3.442745
H      2.339891    0.675157   -1.289490
H      0.558421    1.214320    0.282566
H     -0.405770    2.560437    1.774763
H      5.009315   -2.314617   -2.410740
H      6.919978   -1.338957   -3.811310
H      6.268731    0.751959   -5.213261
H      3.025010    0.492571   -5.569576
H      3.671615    1.983879   -3.638064
