42

C     -0.511624    7.018786   -3.347847
C     -1.298945    6.450906   -4.323341
S     -1.397938    4.761129   -4.070841
C     -0.386566    4.908079   -2.682874
N      0.007141    6.142019   -2.415016
C      0.011284    3.792492   -1.866350
S     -0.447684    2.135377   -2.105848
C      0.456228    1.550254   -0.738622
C      0.480071    0.173700   -0.354059
S      0.120505   -0.344248    1.252608
C      0.355135   -2.010103    0.884673
C      0.183836   -3.017893    1.909972
C     -1.057454   -3.313771    2.524139
C     -1.232053   -4.326143    3.522179
C     -0.188491   -5.143467    4.007489
C      1.033122   -4.844615    3.403121
C      2.192455   -5.506443    3.723328
S      3.523898   -4.900443    2.821937
C      2.543776   -3.745798    2.006113
C      1.226102   -3.827411    2.395335
C      0.696104   -2.097662   -0.424101
C      1.002732   -3.187103   -1.280537
C      1.316906   -2.777770   -2.580042
S      1.269839   -1.048904   -2.884084
C      0.782373   -0.904204   -1.145222
C      1.039966    2.624450   -0.160696
C      1.880841    2.986778    0.925815
C      2.066898    4.384434    0.862976
N      1.387075    4.942370   -0.214829
C      0.804906    3.836982   -0.770527
H     -0.281698    8.074593   -3.269435
H     -1.805193    6.932752   -5.147179
H     -1.939561   -2.747424    2.221563
H     -2.233522   -4.472314    3.929164
H     -0.343071   -5.902093    4.763453
H      2.343418   -6.306925    4.434452
H      3.004392   -3.078145    1.291043
H      1.004139   -4.229319   -0.983524
H      1.586622   -3.415636   -3.410894
H      2.311469    2.332877    1.672867
H      2.640860    5.033109    1.512276
H      1.305971    5.898992   -0.549819
