36

O     -2.286766   -3.606684   -4.489208
C     -2.445285   -2.404287   -4.312784
C     -3.513921   -1.670459   -5.034186
C     -3.664885   -0.365200   -4.785579
N     -2.909211    0.347158   -3.893847
C     -1.835223   -0.254384   -3.220791
C     -1.044088    0.475496   -2.327301
C      0.004565   -0.137903   -1.616845
C      0.821590    0.634774   -0.685267
C      1.655784    1.682256   -1.077597
N      2.426767    2.428978   -0.252735
C      2.412093    2.158621    1.074325
C      1.608496    1.131329    1.585293
C      0.827495    0.390144    0.695892
N      0.129670   -0.530083    1.447967
C      0.445940   -0.419360    2.779846
C     -0.008453   -1.140389    3.881874
C      0.529954   -0.750246    5.098521
N      1.428189    0.245184    5.264402
C      1.854226    0.932353    4.175720
C      1.372179    0.615786    2.898927
C      0.245364   -1.508292   -1.816781
C     -0.545918   -2.253885   -2.692422
C     -1.584878   -1.627218   -3.383304
H     -4.122499   -2.223275   -5.735903
H     -4.425857    0.219372   -5.295264
H     -2.987550    1.357885   -3.890751
H     -1.250074    1.532602   -2.169968
H      1.734724    1.958657   -2.127322
H      3.046630    2.779179    1.697172
H     -0.528586   -1.195022    1.065982
H     -0.727253   -1.945576    3.804791
H      0.236539   -1.254353    6.016190
H      2.574204    1.721679    4.359203
H      1.062572   -2.003802   -1.293862
H     -0.351703   -3.314385   -2.837550
