34

C     -1.017561   -3.605590    3.325807
C     -2.047253   -3.360585    2.439195
N     -2.095413   -2.277762    1.635530
C     -1.076428   -1.396801    1.715811
C     -1.077945   -0.268204    0.910196
C     -0.038076    0.667055    0.959887
C     -0.036439    1.852416    0.110868
C     -0.849048    2.967043    0.408678
C     -0.843059    4.110276   -0.392618
C     -0.028586    4.187957   -1.522752
C      0.760962    3.074876   -1.805691
O      1.605671    2.980671   -2.864826
C      2.185949    1.752756   -2.810874
N      3.080785    1.333053   -3.724601
C      3.529488    0.081493   -3.493984
C      3.143071   -0.735320   -2.440470
C      2.213276   -0.256796   -1.516719
C      1.713610    1.044907   -1.705341
C      0.788214    1.911447   -1.040424
C      0.988241    0.412539    1.862287
N      1.042745   -0.673744    2.665951
C      0.023334   -1.552209    2.586590
C      0.023192   -2.682052    3.389112
H     -1.020029   -4.489460    3.953521
H     -2.885415   -4.045796    2.346962
H     -1.909851   -0.122475    0.224309
H     -1.495206    2.944326    1.285894
H     -1.480195    4.953430   -0.133008
H     -0.008236    5.066472   -2.157384
H      4.253673   -0.276753   -4.222870
H      3.558529   -1.732906   -2.339060
H      1.892574   -0.880208   -0.688523
H      1.828388    1.096066    1.965779
H      0.849519   -2.843045    4.076348
