36

C      1.453400   -4.321023   -0.446524
N      0.108781   -3.850843   -0.117390
C     -0.988476   -4.623472   -0.696708
C     -0.085641   -2.491445    0.154735
C      0.978412   -1.629716    0.465520
C      0.790805   -0.260090    0.749010
C      1.983588    0.604132    1.086114
C      1.790002    2.039261    0.593908
C     -0.498471    0.302902    0.779523
C     -0.663796    1.739436    1.112106
C      0.458307    2.599117    1.036396
C      0.336641    3.969042    1.315909
C     -0.895011    4.492321    1.707266
C     -1.030396    5.930511    2.012773
O     -0.086421    6.706900    1.935486
C     -2.008000    3.660685    1.816821
C     -1.888711    2.297426    1.521423
C     -1.565530   -0.547728    0.475472
C     -1.360512   -1.906518    0.177438
H      2.139861   -4.179772    0.395116
H      1.458362   -5.396087   -0.659179
H      1.844602   -3.808205   -1.332206
H     -1.287063   -4.215809   -1.668826
H     -1.853710   -4.648889   -0.025587
H     -0.699695   -5.669274   -0.851339
H      1.996070   -2.007126    0.498029
H      2.895465    0.196742    0.633875
H      2.119062    0.590451    2.175130
H      1.828107    2.073602   -0.502387
H      2.612516    2.656941    0.973386
H      1.200978    4.625505    1.232022
H     -2.032459    6.276374    2.317109
H     -2.972085    4.052777    2.129824
H     -2.773486    1.675646    1.631883
H     -2.587161   -0.179870    0.451273
H     -2.247944   -2.494347   -0.036089
