41

C     -2.749268    0.744467   -3.149699
C     -1.298003    0.681987   -2.710096
S     -0.414293   -0.715428   -3.474110
C     -1.080967   -2.117813   -2.514192
C     -0.682241   -2.073956   -1.080081
N      0.551236   -2.166108   -0.615069
N      0.513574   -2.017348    0.747688
C     -0.739918   -1.855455    1.091000
S     -1.284986   -1.426088    2.671411
C     -0.513060    0.220063    2.789013
C     -1.047055    1.136046    1.700008
O     -2.251996    1.271464    1.477717
C     -0.091605    1.927895    0.880515
C     -0.488367    3.197211    0.446061
C      0.357798    3.955028   -0.366518
C      1.596669    3.451351   -0.769203
O      2.319457    4.288038   -1.572869
C      3.546219    3.783103   -2.086921
C      1.986961    2.181176   -0.344058
C      1.146566    1.419985    0.478596
N     -1.542656   -1.929292   -0.012068
C     -2.976643   -1.805472   -0.065633
H     -3.314568   -0.135223   -2.828869
H     -3.231942    1.622384   -2.707272
H     -2.834511    0.834322   -4.237855
H     -0.789448    1.600105   -3.021994
H     -1.224939    0.629545   -1.621849
H     -2.162408   -2.164430   -2.657251
H     -0.671677   -3.032597   -2.956842
H     -0.777035    0.664256    3.754230
H      0.573911    0.120959    2.765242
H     -1.457692    3.600837    0.731756
H      0.044600    4.942231   -0.698833
H      3.381499    2.888949   -2.697367
H      4.259558    3.586281   -1.279885
H      3.979241    4.552460   -2.733447
H      2.933172    1.741724   -0.645252
H      1.471296    0.418527    0.750514
H     -3.224926   -0.773715   -0.323576
H     -3.418173   -2.071945    0.896698
H     -3.369274   -2.493224   -0.818132
