38

C      2.054524    4.943284   -0.146963
N      0.766787    4.473658   -0.655547
C     -0.338807    5.423455   -0.547040
C      0.491617    3.100659   -0.635826
C      1.509034    2.135478   -0.514539
C      1.259415    0.744530   -0.504498
C      2.421438   -0.204981   -0.375584
C     -0.059205    0.276468   -0.636567
C     -0.395435   -1.157116   -0.647154
C     -0.353225   -1.856511   -1.868096
C     -0.667674   -3.214331   -1.933240
C     -1.033650   -3.891655   -0.771806
C     -1.370587   -5.328493   -0.824675
O     -1.340286   -5.969342   -1.867821
C     -1.086909   -3.219697    0.452550
C     -0.768485   -1.851912    0.527297
C     -0.840563   -1.153559    1.860312
C     -1.081932    1.220818   -0.780134
C     -0.808721    2.595869   -0.782520
H      2.121664    6.036632   -0.179956
H      2.203134    4.636223    0.894253
H      2.881870    4.574177   -0.762339
H      0.020229    6.457712   -0.596139
H     -1.041480    5.311828   -1.379827
H     -0.870231    5.302316    0.403337
H      2.544752    2.452312   -0.431459
H      2.269506   -0.889821    0.464601
H      2.546590   -0.779110   -1.299000
H      3.358730    0.329831   -0.188384
H     -0.070584   -1.334647   -2.781427
H     -0.627160   -3.735288   -2.887389
H     -1.653656   -5.802806    0.129900
H     -1.375878   -3.754973    1.354293
H     -1.617001   -0.382323    1.844805
H     -1.087686   -1.853662    2.665624
H      0.123658   -0.700063    2.110346
H     -2.112579    0.891328   -0.897721
H     -1.657920    3.260094   -0.907481
