49

C     -4.827203    4.402621    2.933024
C     -4.923265    4.336342    4.340140
C     -3.999400    3.354090    4.773018
C     -3.546634    2.755552    5.893359
S     -2.344146    1.590218    5.416769
C     -2.493338    1.965849    3.731049
C     -1.696468    1.322481    2.700210
C     -1.768841   -0.061305    2.500609
C     -1.008432   -0.675851    1.500604
C     -0.160582    0.080315    0.678748
C     -0.085474    1.465111    0.885182
C     -0.845642    2.079956    1.884885
C      0.645162   -0.567668   -0.369207
C      1.945112   -0.976294   -0.033619
C      2.762012   -1.595486   -0.971515
C      2.301839   -1.823527   -2.274609
C      3.211364   -2.487406   -3.201165
S      4.402595   -1.628149   -4.099299
C      4.985912   -3.058080   -4.868216
C      4.263103   -4.103752   -4.407363
C      4.288827   -5.494568   -4.669015
C      3.324772   -6.192856   -3.931880
S      2.309578   -5.230897   -2.863169
C      3.264666   -3.826899   -3.473306
C      0.990210   -1.421833   -2.652243
C      0.474354   -1.624956   -3.956895
C     -0.813537   -1.227983   -4.315416
C     -1.625926   -0.613294   -3.378436
C     -1.147307   -0.397194   -2.086382
C      0.154838   -0.788473   -1.689066
C     -3.432549    2.927624    3.592555
N     -3.881820    3.505385    2.438973
H     -5.370778    5.026115    2.234735
H     -5.589573    4.932064    4.949798
H     -3.817802    2.897952    6.929125
H     -2.422188   -0.673240    3.119192
H     -1.081166   -1.753205    1.363210
H      0.572559    2.072295    0.266282
H     -0.755501    3.154301    2.032068
H      2.325400   -0.812395    0.973340
H      3.763683   -1.904655   -0.679488
H      5.797189   -3.026730   -5.581550
H      4.966047   -5.988441   -5.355035
H      3.141705   -7.258658   -3.951861
H      1.081024   -2.103586   -4.723270
H     -1.175020   -1.401837   -5.325289
H     -2.631510   -0.300466   -3.645963
H     -1.816609    0.088950   -1.378967
H     -3.589050    3.303824    1.490281
