44

C      3.415145    0.104779    1.204460
N      3.195178    1.438428    1.449497
C      1.912628    1.778012    1.088106
C      1.289403    0.652766    0.597286
C      2.251572   -0.415773    0.686664
C      2.050213   -1.739649    0.286681
C      0.745872   -1.889438   -0.232989
C     -0.236469   -0.819999   -0.326076
C     -1.526887   -1.089031   -0.865079
N     -1.954778   -2.284772   -1.312032
S     -3.503920   -2.086941   -1.839735
N     -3.715501   -0.482893   -1.518846
C     -2.574455   -0.010278   -0.983303
C     -2.331239    1.349990   -0.556318
C     -3.294447    2.433968   -0.641630
C     -4.611751    2.374840   -1.143513
N     -5.488146    3.412224   -1.207880
C     -5.058407    4.599307   -0.752808
C     -3.794315    4.794956   -0.236778
C     -2.914598    3.703187   -0.184103
C     -1.635519    3.838126    0.323025
N     -0.732678    2.837494    0.407183
C     -1.035171    1.597196   -0.016582
C     -0.043455    0.552159    0.087159
C      3.023706   -2.811061    0.396250
C      3.573154   -3.234698    1.632057
C      4.515555   -4.282579    1.761715
C      4.999324   -5.013621    0.666136
C      4.487945   -4.649144   -0.601707
N      4.820002   -5.225113   -1.767474
S      3.951107   -4.439126   -2.942544
N      3.116836   -3.335774   -2.029970
C      3.480073   -3.530129   -0.748765
H      4.380640   -0.335175    1.414032
H      3.878134    2.081844    1.828150
H      1.577720    2.798770    1.209892
H      0.456392   -2.880924   -0.590856
H     -5.038530    1.455707   -1.531699
H     -5.776071    5.411916   -0.815307
H     -3.504087    5.779188    0.116077
H     -1.271888    4.792921    0.696158
H      3.247935   -2.729902    2.544176
H      4.878656   -4.534599    2.758498
H      5.719906   -5.814788    0.776956
