47

C     -2.088941   -3.080355    2.177813
C     -1.324277   -1.834664    1.850988
C     -1.054329   -1.794087    0.533822
C     -0.276538   -0.799589   -0.237003
C      0.315750    0.326425    0.445275
C      1.173781    1.263827   -0.164880
C      1.778780    2.372921    0.537882
S      1.442165    4.022140    0.086576
C      2.432943    4.692439    1.348227
C      2.951692    3.667169    2.052826
N      3.775928    3.747941    3.136632
C      3.968735    2.398590    3.430472
C      3.269084    1.564797    2.531021
C      2.593550    2.412645    1.615619
C      1.434400    0.920930   -1.492246
C      2.334511    1.533505   -2.331396
N      2.340104    0.826933   -3.507091
C      1.472576   -0.240960   -3.421002
C      0.842389   -0.189981   -2.196882
C     -0.106788   -1.082796   -1.647588
C     -0.830724   -2.193063   -2.334378
C     -0.945214   -2.288819   -3.733978
C     -1.595595   -3.354750   -4.379739
C     -2.190456   -4.355409   -3.601969
C     -2.913930   -5.545579   -3.878796
C     -3.270867   -6.071263   -2.661211
O     -2.820540   -5.283753   -1.653355
C     -2.149216   -4.232342   -2.216405
C     -1.516682   -3.169216   -1.553347
C     -1.613663   -2.984333   -0.101914
C     -2.210519   -3.736994    0.838719
H     -3.072646   -2.842399    2.592781
H     -1.535096   -3.711653    2.878689
H     -1.032448   -1.114579    2.598519
H      0.104772    0.469739    1.504033
H      2.556281    5.757203    1.484199
H      4.135444    4.580020    3.587728
H      4.599627    2.130298    4.268233
H      3.265607    0.482828    2.550884
H      2.992350    2.381753   -2.197699
H      2.933442    1.028884   -4.301423
H      1.434811   -0.938956   -4.243143
H     -0.563402   -1.502564   -4.376353
H     -1.646478   -3.386745   -5.464136
H     -3.151795   -5.961358   -4.847121
H     -3.822350   -6.949473   -2.356145
H     -2.729806   -4.669915    0.686509
