40

O      3.342086    1.143708   -1.672120
C      2.908796    0.542966   -0.703079
C      3.731918   -0.302634    0.238254
C      2.752369   -0.630844    1.357011
C      1.402937   -0.586399    0.667945
N      1.576854    0.457060   -0.311160
C      0.527527    0.896465   -1.209155
N     -0.778202    1.095368   -0.576850
C     -1.177433    2.403048   -0.225728
O     -2.334936    2.790322   -0.072756
C     -0.137542    3.441924   -0.038990
C     -0.171662    4.586538   -0.841905
C      0.790406    5.580949   -0.666366
C      1.769905    5.437853    0.318143
C      1.784332    4.307913    1.138072
C      0.823836    3.310795    0.968027
C     -1.692364   -0.023341   -0.454794
C     -1.482194   -1.244326   -1.120794
C     -2.358880   -2.328144   -0.968893
C     -3.465756   -2.223326   -0.137409
C     -3.691462   -1.036295    0.545280
C     -2.813230    0.044159    0.390459
H      4.052501   -1.206313   -0.288902
H      4.598718    0.250898    0.606676
H      2.803957    0.147949    2.128339
H      2.956031   -1.593188    1.834562
H      0.598493   -0.345783    1.367163
H      1.194740   -1.529135    0.151593
H      0.856566    1.829525   -1.681624
H      0.471573    0.199846   -2.049496
H     -0.944766    4.702209   -1.597683
H      0.774482    6.469311   -1.292773
H      2.519191    6.214500    0.452580
H      2.541285    4.209147    1.911838
H      0.823792    2.442677    1.620550
H     -0.647800   -1.405398   -1.793335
H     -2.173753   -3.253458   -1.509130
H     -4.148381   -3.060511   -0.021295
H     -4.550260   -0.939721    1.204954
H     -3.029913    0.932855    0.976977
