48

C      4.547479   -4.207741    2.033481
N      4.125036   -3.883039    0.761120
C      3.144283   -2.913818    0.814266
C      2.931554   -2.620290    2.139750
C      2.031751   -1.695566    2.681683
C      2.125151   -1.692991    4.100020
C      3.027038   -2.521451    4.859130
C      3.931187   -3.444275    4.285960
C      3.821108   -3.435617    2.902308
C      1.126525   -0.877771    1.907161
C     -0.025806   -1.380837    1.258917
C     -0.955489   -0.634110    0.496726
N     -2.006516   -1.322704    0.052806
C     -2.968321   -0.688833   -0.669367
C     -2.942941    0.628308   -1.109948
C     -4.042221    1.116629   -1.919552
N     -5.121663    0.335693   -2.150096
C     -6.149556    0.798847   -2.904762
C     -6.186427    2.049251   -3.488864
C     -5.098914    2.880593   -3.292355
C     -4.024542    2.414117   -2.503558
C     -2.823009    3.089721   -2.233297
C     -2.417953    4.296824   -2.740891
O     -1.135570    4.544058   -2.351804
C     -0.733198    3.487787   -1.585295
C     -1.766441    2.599866   -1.409667
C     -1.768572    1.358545   -0.711937
C     -0.813289    0.758794    0.218241
C      0.280391    1.302995    0.978552
C      0.480270    2.643938    1.214145
S      1.901828    2.949575    2.126547
C      2.183128    1.277393    2.361064
C      1.206992    0.511016    1.764709
H      5.317357   -4.951373    2.186914
H      4.483462   -4.294971   -0.090492
H      2.698496   -2.534808   -0.095499
H      1.468196   -1.025773    4.660696
H      3.005138   -2.430438    5.945721
H      4.602807   -4.062210    4.863577
H     -0.232002   -2.449307    1.365947
H     -3.802557   -1.343332   -0.923551
H     -6.974298    0.101580   -3.029306
H     -7.036617    2.361074   -4.084399
H     -5.081605    3.867667   -3.742878
H     -2.854704    5.040888   -3.391948
H      0.304509    3.528824   -1.288394
H     -0.122861    3.491490    0.929020
H      3.027097    0.959629    2.958806
