46

C      2.071419   -4.158995   -1.060795
C      2.797558   -3.216047   -0.151236
C      1.977711   -2.239847    0.262811
C      2.165706   -1.115192    1.123857
C      1.062601   -0.284892    1.344903
N      1.451533    0.720022    2.197061
C      2.780054    0.582992    2.541775
C      3.574412    1.385202    3.381204
C      4.918818    1.051579    3.590359
C      5.403091   -0.096626    2.928924
N      6.664431   -0.564146    3.013219
S      6.731487   -1.932168    2.055005
N      5.160470   -1.989187    1.490693
C      4.590786   -0.938497    2.055673
C      3.215881   -0.554213    1.873569
C     -0.284089   -0.456432    0.768416
C     -1.338885    0.424138    1.033313
C     -2.593959    0.211843    0.455350
C     -2.815461   -0.881497   -0.390465
C     -1.762997   -1.766185   -0.659787
C     -0.498221   -1.566258   -0.089874
C      0.650110   -2.464862   -0.341224
C      0.696006   -3.569672   -1.105969
C     -4.126599   -1.079325   -1.000146
S     -5.094679   -2.442736   -0.552802
C     -6.390089   -1.989423   -1.604321
C     -6.086619   -0.835019   -2.273620
C     -6.835926   -0.090459   -3.238579
C     -6.216508    1.015618   -3.706542
Si    -4.486126    1.236810   -2.908753
C     -4.805588   -0.334904   -1.920044
H      2.053447   -5.171209   -0.646347
H      2.526215   -4.176124   -2.055543
H      3.833079   -3.351583    0.102956
H      0.855023    1.461859    2.531867
H      3.155834    2.261975    3.869929
H      5.562864    1.644151    4.229488
H     -1.212638    1.280785    1.686695
H     -3.405457    0.901453    0.679503
H     -1.938788   -2.609025   -1.322808
H     -0.112840   -3.997113   -1.676915
H     -7.281550   -2.597766   -1.661938
H     -7.823003   -0.399640   -3.562596
H     -6.584191    1.722368   -4.432654
H     -3.420248    1.114253   -3.933831
H     -4.443320    2.469659   -2.081820
