35

C      2.296769   -0.232367   -3.363656
C      1.573044    0.771089   -2.460472
C      2.273150    2.130382   -2.543976
C      0.088636    0.843661   -2.862489
S     -0.936286    1.859229   -1.748089
C     -1.093523    0.816346   -0.373718
N     -0.732084   -0.443810   -0.336112
C     -1.051783   -0.876151    0.924134
C     -0.876751   -2.142863    1.500077
C     -1.300803   -2.349227    2.817636
C     -1.889403   -1.315232    3.546869
C     -2.072533   -0.044151    2.989515
C     -1.637290    0.143790    1.671246
N     -1.654543    1.223047    0.810934
C     -2.195563    2.534728    1.117771
C     -3.571292    2.784864    0.534341
N     -4.424005    1.726378    0.405454
O     -3.967277    3.916552    0.261649
H      2.257296    0.076828   -4.413763
H      1.841631   -1.225376   -3.284403
H      3.349663   -0.325800   -3.076964
H      1.660557    0.403346   -1.430864
H      1.851253    2.845553   -1.831476
H      3.338783    2.031284   -2.309950
H      2.188331    2.559206   -3.548323
H     -0.346255   -0.160156   -2.927706
H      0.002152    1.282462   -3.863409
H     -0.420815   -2.942339    0.926358
H     -1.169183   -3.327074    3.275195
H     -2.211598   -1.500324    4.570101
H     -2.532495    0.750201    3.567930
H     -2.251071    2.651367    2.204111
H     -1.493649    3.284965    0.739700
H     -4.105030    0.764933    0.388011
H     -5.307509    1.919533   -0.050971
