46

C      2.248035    3.470966    3.215480
C      3.075595    4.415440    4.093000
C      4.272528    3.871638    4.404826
C      4.368735    2.590588    3.809558
C      5.307952    1.610116    3.776528
S      4.719769    0.298628    2.831743
C      3.197660    1.072492    2.476392
C      3.181873    2.308248    3.088499
C      2.186878    0.428366    1.659682
S      0.673259    1.196095    1.312739
C      0.046218   -0.107867    0.348440
C     -1.246669   -0.071521   -0.261365
C     -1.912266   -1.129731   -1.118880
C     -3.253397   -0.521154   -1.463175
C     -3.318156    0.689007   -0.883836
C     -2.103700    0.960962   -0.156589
C     -4.241879   -1.220089   -2.296092
C     -4.001732   -2.512375   -2.831430
C     -4.918722   -3.228808   -3.638411
C     -6.175436   -2.725223   -3.994903
C     -6.492038   -1.439768   -3.500166
N     -7.643450   -0.791061   -3.732299
S     -7.530071    0.661319   -2.944457
N     -6.022052    0.534641   -2.275684
C     -5.516483   -0.660825   -2.633189
C      1.009361   -1.083799    0.322826
C      1.130758   -2.370937   -0.269356
C      2.331161   -2.904032    0.044160
C      3.145403   -1.954676    0.920134
C      2.201118   -0.801408    1.044744
H      2.039866    3.936859    2.248303
H      1.319495    3.197170    3.724069
H      2.729338    5.387381    4.411212
H      5.039760    4.332580    5.010553
H      6.285145    1.575845    4.236467
H     -1.321884   -1.316049   -2.022953
H     -2.036639   -2.058843   -0.551519
H     -4.131339    1.397798   -0.921086
H     -1.960435    1.886996    0.380415
H     -3.054059   -3.009568   -2.621849
H     -4.632773   -4.217730   -3.998422
H     -6.869616   -3.281694   -4.612912
H      0.379914   -2.852237   -0.877674
H      2.686743   -3.872869   -0.273225
H      4.072567   -1.672364    0.413669
H      3.356102   -2.418337    1.887842
