46

C     -1.570390    0.418346   -3.488906
C     -0.996635    0.679889   -2.090240
C      0.100964   -0.344825   -1.737783
C     -0.341783   -1.467685   -0.798267
C     -1.806108   -1.833959   -0.969721
C     -2.751441   -0.645665   -0.772837
C     -2.116918    0.730630   -1.030627
N     -1.618590    1.298592    0.215295
C     -1.415023    2.651687    0.394225
O     -1.810690    3.510328   -0.389730
C     -0.685674    2.988205    1.691987
O      0.435913    2.132937    1.898688
N      0.029014    0.951952    2.544805
C      1.046011    0.193910    2.830631
C      2.468957    0.466478    2.566564
C      3.153240   -0.433114    1.743739
C      4.501798   -0.217436    1.455484
C      5.163345    0.890444    1.988646
C      4.485209    1.777203    2.827236
C      3.143477    1.549010    3.141380
O      2.507430    2.424633    3.978698
C      2.720214    2.051460    5.335063
F      2.078748    2.958028    6.113576
F      2.138183    0.848940    5.571995
H     -2.035672   -0.567683   -3.570822
H     -0.780232    0.477887   -4.245307
H     -2.325512    1.169960   -3.742819
H     -0.513645    1.665102   -2.146232
H      0.514455   -0.782337   -2.655082
H      0.939287    0.179351   -1.260249
H      0.286466   -2.350241   -0.967189
H     -0.163438   -1.170252    0.241301
H     -2.076202   -2.633242   -0.269553
H     -1.952888   -2.252860   -1.972727
H     -3.171481   -0.679870    0.240731
H     -3.603484   -0.781496   -1.451436
H     -2.905841    1.410951   -1.376625
H     -1.100890    0.712969    0.870521
H     -0.304127    4.010964    1.613781
H     -1.385298    2.943109    2.534072
H      0.830722   -0.787462    3.286746
H      2.639594   -1.285704    1.306452
H      5.034631   -0.904502    0.801713
H      6.208855    1.066192    1.744610
H      5.005263    2.644407    3.226088
H      3.778846    2.026153    5.616555
