36

C      1.598379    4.138058   -0.348005
C      1.829652    5.129964   -1.467411
C      1.833959    4.559518   -2.682598
C      1.606965    3.148664   -2.470552
C      1.460995    2.843176   -1.112488
C      1.229438    1.537280   -0.624761
C      1.094135    1.300939    0.736522
N      0.872364    0.094087    1.297255
C      0.768841   -0.975609    0.500391
C      0.538345   -2.197418    1.119978
C      0.406690   -3.394675    0.406172
C      0.522238   -3.341792   -0.980087
C      0.753989   -2.121843   -1.622743
C      0.882938   -0.906244   -0.904990
C      1.121850    0.396838   -1.485855
C      1.272269    0.696035   -2.912606
N      1.218483   -0.172849   -3.939228
S      1.448856    0.680665   -5.338346
N      1.634650    2.212673   -4.739731
C      1.521104    2.113773   -3.406076
C      0.176473   -4.657966    1.120180
C      0.765997   -5.108596    2.288749
C      0.277913   -6.383651    2.698448
C     -0.677355   -6.868404    1.835494
S     -0.980421   -5.791158    0.544535
H      0.680099    4.377769    0.195916
H      2.458460    4.111493    0.327351
H      1.974865    6.187273   -1.291469
H      1.975239    5.030470   -3.642278
H      1.161167    2.105905    1.464822
H      0.446728   -2.205185    2.204931
H      0.445361   -4.244108   -1.583031
H      0.834032   -2.147796   -2.705411
H      1.524092   -4.551028    2.826052
H      0.610643   -6.915516    3.581276
H     -1.215954   -7.803779    1.900396
