34

C     -3.200846   -1.843354    5.651592
C     -2.191012   -2.356826    6.433580
S     -0.682954   -2.116680    5.658206
C     -1.486436   -1.346308    4.339392
N     -2.800162   -1.269550    4.461224
C     -0.756831   -0.833729    3.200673
N      0.554993   -0.919171    3.075547
C      0.951086   -0.338312    1.886102
C     -0.055702    0.185152    1.097831
S     -1.559094   -0.056690    1.890090
C      0.068542    0.822542   -0.183351
S     -0.862517    2.205171   -0.633719
C     -0.123044    2.342569   -2.181543
C     -0.453069    3.369332   -3.119108
S     -2.090194    3.650777   -3.657003
C     -1.645474    4.957489   -4.705963
C     -0.314986    5.123545   -4.604016
O      0.434557    6.051042   -5.258522
C      1.682631    5.740366   -4.750075
C      1.682138    4.679696   -3.834934
C      0.338050    4.269636   -3.749146
C      0.804075    1.350177   -2.355781
S      1.881378    0.930068   -3.749840
C      2.430041   -0.395188   -2.740583
C      1.841968   -0.496085   -1.475689
C      0.885995    0.527997   -1.227377
H     -4.254727   -1.860433    5.902636
H     -2.263990   -2.846529    7.393819
H      2.007545   -0.318959    1.645880
H     -2.350173    5.509301   -5.310369
H      2.478714    6.365592   -5.133196
H      2.546191    4.284041   -3.320806
H      3.178494   -1.054851   -3.159190
H      2.100745   -1.291450   -0.787167
