38

Si     0.906727    2.094882    1.463426
C     -0.968959    2.476336    1.017644
C     -1.506156    1.524466    0.214061
C     -0.544752    0.527597   -0.068058
N     -0.688245   -0.593576   -0.835165
C      0.514129   -1.300836   -0.844573
C      1.379358   -0.549854   -0.048476
C      0.735972    0.564051    0.425332
C      2.719275   -0.985883    0.165216
N      3.576951   -0.306849    0.912699
S      4.957389   -1.249094    0.818424
N      4.420976   -2.489011   -0.168731
C      3.129332   -2.225514   -0.474559
C      2.264569   -3.018393   -1.297190
C      2.737086   -4.247639   -1.907492
C      1.946887   -5.079417   -2.727463
C      0.666992   -4.561949   -2.866879
C     -0.331753   -5.142952   -3.603297
N     -1.434304   -4.329286   -3.488775
C     -1.145401   -3.239445   -2.688237
C      0.163783   -3.352854   -2.280727
C      0.919829   -2.500326   -1.460168
C     -1.571231    3.646911    1.541977
N     -0.982773    4.535525    2.324534
C     -1.844565    5.559274    2.659772
C     -3.109421    5.462433    2.132853
S     -3.229137    4.045498    1.186150
H      1.063629    1.816832    2.916616
H      1.813326    3.117527    0.875251
H     -2.517639    1.506346   -0.168933
H     -1.528267   -0.869104   -1.319204
H      3.769035   -4.552846   -1.723608
H      2.312336   -5.992389   -3.175404
H     -0.369064   -6.048290   -4.194000
H     -2.329096   -4.503832   -3.927927
H     -1.919840   -2.512156   -2.508402
H     -1.492521    6.359603    3.299122
H     -3.943726    6.137287    2.255886
