36

C     -5.235218   -3.740442   -1.346017
S     -3.824629   -4.006664   -0.425828
C     -3.064945   -2.520431   -0.927676
C     -1.710989   -2.168493   -0.416232
C     -0.995614   -2.981284    0.465351
N      0.233726   -2.745702    0.981121
C      0.833628   -1.584449    0.592305
C      0.213558   -0.700418   -0.281758
C     -1.066849   -0.985061   -0.794866
S      1.194313    0.666563   -0.592050
C      2.465990    0.111845    0.430205
C      2.134348   -1.118633    1.005431
N      2.972112   -1.778589    1.859136
C      4.147726   -1.180256    2.123964
C      4.578602    0.037608    1.609768
C      5.825601    0.600372    1.934693
C      6.213164    1.827001    1.391860
C      5.363774    2.505583    0.520516
C      4.122334    1.961585    0.187090
C      3.719588    0.721224    0.730145
C     -3.920929   -1.852352   -1.796115
N     -3.641335   -0.649288   -2.382370
C     -4.658292   -0.232053   -3.183699
C     -5.851689   -0.926809   -3.399120
N     -6.168228   -2.122455   -2.837224
C     -5.162599   -2.559563   -2.029824
H     -6.046399   -4.454088   -1.344691
H     -1.401942   -3.924209    0.824429
H     -1.522419   -0.274193   -1.474609
H      4.778771   -1.744482    2.808095
H      6.503223    0.086222    2.613185
H      7.179608    2.253567    1.649564
H      5.667947    3.460682    0.099140
H      3.478928    2.511628   -0.495010
H     -4.488300    0.721573   -3.676128
H     -6.611408   -0.516186   -4.058302
