39

C     -3.434349   -4.891417   -0.478444
C     -3.630593   -6.071011    0.430703
C     -2.780723   -5.991600    1.463162
C     -1.980023   -4.801322    1.333563
C     -2.328693   -4.135135    0.219416
C     -1.774436   -2.906902   -0.269758
C     -0.670694   -2.149275    0.425271
C     -0.453183   -0.948729   -0.478213
C     -1.317473   -1.050293   -1.507098
C     -2.120725   -2.240628   -1.381064
C      0.480014    0.122839   -0.316495
S      0.626590    1.430484   -1.458137
C      1.890808    2.242359   -0.596934
C      2.470154    3.471454   -1.095258
C      2.457695    3.947103   -2.397073
C      3.118780    5.202533   -2.541742
C      3.619372    5.657411   -1.345154
S      3.292778    4.576372   -0.065426
C      2.182391    1.529651    0.539297
C      3.133074    1.639712    1.687001
C      2.781298    0.378600    2.473440
C      1.793332   -0.315994    1.868200
C      1.397877    0.353290    0.677282
H     -3.130986   -5.220557   -1.477494
H     -4.351763   -4.297635   -0.543544
H     -4.351191   -6.857486    0.266090
H     -2.693097   -6.697326    2.275248
H     -1.221199   -4.520274    2.047885
H      0.240077   -2.754530    0.491612
H     -0.983140   -1.830186    1.425665
H     -1.437924   -0.368698   -2.336178
H     -2.879105   -2.519419   -2.096946
H      1.998350    3.418569   -3.223873
H      3.219467    5.740539   -3.476319
H      4.161877    6.574136   -1.159174
H      2.942871    2.528160    2.295232
H      4.175515    1.611528    1.357773
H      3.268221    0.096466    3.394951
H      1.372236   -1.240547    2.234243
