25

C      0.461063    4.247124   -0.901419
O     -0.881867    3.790693   -1.018850
C     -1.074005    2.439799   -1.099655
C     -2.410705    2.047679   -1.216419
C     -2.755830    0.697280   -1.307245
C     -1.757393   -0.276486   -1.297928
O     -2.096360   -1.601692   -1.326850
C     -2.653593   -1.965911   -2.593469
C     -0.423168    0.109929   -1.160776
S      0.863501   -1.103111   -1.123485
N      0.408514   -2.124805    0.139495
O      0.783012   -1.883638   -2.337014
O      2.088085   -0.453941   -0.712681
C     -0.076566    1.466515   -1.068653
H      0.439186    5.340070   -0.852856
H      0.922186    3.881549    0.022007
H      1.051918    3.964125   -1.778817
H     -3.192359    2.804659   -1.228376
H     -3.804134    0.418404   -1.369268
H     -3.689488   -1.621555   -2.674258
H     -2.654755   -3.058273   -2.654579
H     -2.054423   -1.579889   -3.426087
H      0.210854   -3.044523   -0.260376
H     -0.415105   -1.779123    0.633603
H      0.970891    1.737492   -0.974351
