47

C      0.471785    0.757332   -3.645569
C     -0.047243    0.578466   -2.255656
C     -1.395629    0.181856   -1.957476
C     -1.652871    0.057517   -0.604146
C     -2.914310   -0.311303    0.002301
C     -4.172297   -0.135669   -0.542976
C     -5.237782   -0.618376    0.291426
C     -6.677000   -0.549552   -0.105276
C     -4.739968   -1.157494    1.469454
C     -5.461240   -1.706336    2.578779
S     -4.991851   -3.190969    3.346510
C     -6.347449   -3.088996    4.414578
C     -7.151456   -1.895656    4.174071
C     -6.672816   -1.143831    3.179185
S     -3.030824   -1.072786    1.529663
S     -0.252829    0.435685    0.305868
C      0.684619    0.753027   -1.090554
C      2.056922    1.178044   -0.973436
C      2.603771    2.350340   -1.458472
C      3.998189    2.456259   -1.179360
C      4.474271    1.361475   -0.488299
C      5.825952    1.093044   -0.032008
C      6.817108    0.542349   -0.873529
C      8.141454    0.292776   -0.443482
C      8.589457    0.574057    0.859467
C      7.637296    1.135783    1.746920
N      7.867395    1.479197    3.024544
S      6.439428    2.093892    3.610229
N      5.468716    1.959309    2.272373
C      6.218942    1.409464    1.299096
S      3.241328    0.211504   -0.197814
H     -0.234822    0.364575   -4.384192
H      1.420391    0.227139   -3.778412
H      0.628909    1.819301   -3.860402
H     -2.140267   -0.017270   -2.719152
H     -4.336842    0.327392   -1.509185
H     -7.160787    0.309484    0.369817
H     -6.779671   -0.438997   -1.189661
H     -7.209961   -1.461515    0.183081
H     -6.617879   -3.806199    5.199668
H     -8.029161   -1.671845    4.760967
H     -7.103581   -0.211493    2.847319
H      2.028021    3.107591   -1.976544
H      4.616058    3.300080   -1.463461
H      6.554233    0.293542   -1.902736
H      8.847940   -0.136345   -1.155646
H      9.607528    0.377044    1.174841
