54

C      1.246163   10.656468   -4.624922
C      1.072780    9.593809   -4.093801
C      0.866748    8.329765   -3.460575
C     -0.327163    7.954196   -2.850678
C     -0.195473    6.643223   -2.321836
C      1.042189    6.158432   -2.569313
S      2.120840    7.125066   -3.396362
C      1.146585    4.914121   -2.062416
S      2.396978    3.810421   -2.045954
C      1.332613    2.740497   -1.180722
C      1.749020    1.439419   -0.766294
C      2.082679    0.341930   -0.411241
C      2.457643   -0.965619    0.017194
S      4.091858   -1.494349    0.076356
C      3.651561   -3.048762    0.656623
C      2.292118   -3.157857    0.801235
N      1.690489   -4.290503    1.242326
C      0.324540   -4.156944    1.291493
C     -0.349672   -5.401577    1.716679
C      0.009671   -6.026454    2.924565
C     -0.617517   -7.201962    3.344936
C     -1.610717   -7.780007    2.559086
C     -1.970681   -7.188877    1.350730
C     -1.341347   -6.013872    0.930260
C     -0.371636   -2.954270    0.950458
C     -1.835900   -2.791386    1.069867
C     -2.594579   -2.364438   -0.035167
C     -3.979641   -2.206008    0.056518
C     -4.631086   -2.463164    1.259725
C     -3.898482   -2.869452    2.372076
C     -2.512629   -3.025779    2.279676
N      0.245083   -1.816250    0.493881
C      1.597099   -1.956636    0.433071
C      0.064118    3.259349   -0.935558
C     -0.021019    4.568574   -1.476249
N     -0.846302    5.648843   -1.641487
C     -2.202213    5.714158   -1.166164
H      1.405233   11.597417   -5.097399
H     -1.210603    8.576854   -2.796463
H      4.402302   -3.798802    0.859788
H      0.792256   -5.594065    3.546207
H     -0.324751   -7.667253    4.282555
H     -2.097839   -8.695822    2.883577
H     -2.738837   -7.643671    0.730420
H     -1.632591   -5.581764   -0.025186
H     -2.099431   -2.149043   -0.980933
H     -4.546363   -1.877524   -0.810872
H     -5.708469   -2.339498    1.333210
H     -4.403527   -3.062238    3.315171
H     -1.963626   -3.331106    3.168549
H     -0.723638    2.732739   -0.412078
H     -2.784145    4.937577   -1.669193
H     -2.627974    6.695968   -1.387799
H     -2.201001    5.550075   -0.085357
