35

C      3.735219   -4.450236   -2.833465
C      3.510886   -4.412964   -1.474081
C      2.732252   -3.242605   -1.246529
S      1.994305   -2.388785    0.070723
C      1.425333   -1.239222   -1.032634
C      1.745356   -1.433901   -2.361525
C      1.287264   -0.495745   -3.304447
N      0.543437    0.602985   -3.003752
C      0.207689    0.831233   -1.713181
C     -0.538566    1.863072   -1.107522
C     -0.568153    1.593807    0.254580
O      0.129433    0.440134    0.504242
C      0.585577    0.000030   -0.688124
C     -1.169282    2.275723    1.386412
C     -1.917737    3.480725    1.260328
C     -2.529190    4.187205    2.356097
C     -2.462043    3.769826    3.701277
C     -1.730752    2.595632    3.810649
C     -1.480199    1.930283    4.982578
N     -0.728112    0.824257    4.657099
C     -0.501649    0.783865    3.296937
C     -1.114903    1.878169    2.732448
C      2.519552   -2.629130   -2.451667
N      3.136868   -3.371991   -3.430260
H      4.280642   -5.167984   -3.433240
H      3.856381   -5.126262   -0.738257
H      1.515024   -0.608531   -4.361169
H     -0.998188    2.701122   -1.608190
H     -2.048904    3.916539    0.269487
H     -3.077665    5.101767    2.127906
H     -2.923536    4.305423    4.518011
H     -1.758026    2.128850    6.008528
H     -0.388346    0.137382    5.317441
H      0.076625   -0.027036    2.876324
H      3.129212   -3.131858   -4.414267
