36

C     -1.513419    1.697352   -0.456814
C     -0.434869    0.637222   -0.725526
C     -0.480557   -0.726934   -0.513064
C      0.656607   -1.478868   -0.852587
C      1.779649   -0.804403   -1.380384
N      1.859121    0.531516   -1.612539
C      0.746165    1.177241   -1.267246
C      0.517587    2.568884   -1.382065
N      1.170580    3.673802   -1.795632
C      0.315266    4.752478   -1.620088
C      0.484050    6.111737   -1.883523
C     -0.601293    6.930269   -1.579340
C     -1.755537    6.367872   -1.047582
N     -1.946659    5.057521   -0.782683
C     -0.889825    4.266224   -1.079177
C     -0.739322    2.883320   -0.935340
C      0.677713   -2.919041   -0.676995
S      0.506530   -3.685073    0.867826
C      0.675304   -5.288298    0.211519
C      0.839164   -5.166600   -1.121453
C      1.020985   -5.948888   -2.287376
C      1.105728   -5.054099   -3.375934
N      0.985671   -3.727698   -2.963899
C      0.838077   -3.880019   -1.613617
H     -1.744754    1.760643    0.609174
H     -2.402982    1.515295   -1.064598
H     -1.368646   -1.198328   -0.104299
H      2.683741   -1.354774   -1.634537
H      2.111721    3.708615   -2.164129
H      1.401950    6.510864   -2.298818
H     -0.549055    7.999884   -1.754769
H     -2.606367    7.001507   -0.807697
H      0.636399   -6.165348    0.840990
H      1.081453   -7.026887   -2.358448
H      1.239416   -5.263533   -4.429755
H      0.990557   -2.867453   -3.499286
