41

C     -1.812015   -4.978554    2.672733
S     -2.436223   -4.155697    4.040640
C     -1.843741   -2.648596    3.478123
C     -1.183534   -2.764984    2.273798
C     -1.165498   -4.126166    1.804153
C     -0.555356   -4.542011    0.591995
C     -0.529723   -5.880394    0.116261
C      0.093983   -6.187519   -1.084903
C      0.692181   -5.174363   -1.816363
C      0.668682   -3.851273   -1.349317
C      0.051664   -3.460860   -0.133192
C      0.034024   -2.060914    0.348227
C      0.638035   -1.003216   -0.379187
C      0.608134    0.318935    0.098874
N      1.126392    1.471644   -0.446414
C      0.874241    2.569331    0.352275
C      0.168495    2.076639    1.441218
C     -0.000402    0.674205    1.288707
C     -0.614016   -0.329004    2.050619
C     -0.593360   -1.674263    1.581467
C      1.307635    3.939694    0.026968
C      1.009832    5.002310    0.895088
C      1.411282    6.310868    0.606356
C      2.119977    6.581713   -0.559155
C      2.426394    5.544623   -1.434290
C      2.023911    4.235722   -1.143860
H     -1.965192   -6.045175    2.600429
H     -2.024219   -1.769993    4.079702
H     -0.993691   -6.685607    0.677358
H      0.112756   -7.211439   -1.447389
H      1.183721   -5.403643   -2.758893
H      1.160776   -3.119985   -1.983886
H      1.138866   -1.185025   -1.322865
H      1.625982    1.496098   -1.321572
H     -0.196904    2.660906    2.274945
H     -1.092976   -0.058319    2.984229
H      0.457979    4.830360    1.815191
H      1.167974    7.115644    1.295236
H      2.432372    7.597818   -0.784531
H      2.980176    5.751519   -2.346572
H      2.287420    3.462772   -1.858200
