15

C     -0.898863    1.419733    1.417071
C     -0.495540    1.687730    0.124559
N      0.779070    1.528892   -0.278348
N      1.719853    1.086015    0.616308
C      1.368476    0.810863    1.894899
C      2.424229    0.343548    2.790235
N      3.736187    0.177274    2.385705
C      4.318717   -0.243785    3.477164
O      3.482084   -0.356719    4.536686
N      2.221238    0.032317    4.086301
C      0.055623    0.970520    2.324347
H     -1.932360    1.556401    1.714950
H     -1.185637    2.040326   -0.633204
H      5.353252   -0.506055    3.638277
H     -0.230138    0.751056    3.348423
