31

N     -2.771002    0.007971    1.369060
C     -1.634014    0.185170    1.521212
C     -0.228389    0.386011    1.740175
C      0.379828   -0.275926    2.818371
C      1.741493   -0.112049    3.071528
C      2.504095    0.714373    2.251857
C      1.906782    1.376339    1.177372
C      0.535553    1.221729    0.900448
C     -0.045454    1.933408   -0.240738
C     -0.644428    3.201508   -0.086182
C     -1.194660    3.884861   -1.172147
C     -1.166510    3.334226   -2.454094
C     -0.569094    2.082171   -2.587098
O     -0.453177    1.404896   -3.758694
C      0.176908    0.231760   -3.486135
N      0.451088   -0.682321   -4.435515
C      1.076907   -1.776973   -3.955249
C      1.431052   -1.990947   -2.630206
C      1.130434   -1.013136   -1.681416
C      0.474409    0.149390   -2.125695
C     -0.009759    1.359794   -1.536090
H     -0.207573   -0.922754    3.468641
H      2.205924   -0.626372    3.909905
H      3.565720    0.847197    2.448294
H      2.520166    2.019358    0.546887
H     -0.684698    3.663616    0.899510
H     -1.654160    4.859268   -1.018698
H     -1.589364    3.848049   -3.309669
H      1.303387   -2.529845   -4.707554
H      1.933924   -2.907561   -2.339093
H      1.397166   -1.156385   -0.639931
