33

C      1.596782    0.751712    3.875366
C      2.698518    0.081360    4.665887
C      3.585242   -0.550089    3.878239
C      3.159114   -0.359933    2.503553
N      3.811408   -0.855346    1.437879
C      3.245688   -0.560817    0.238989
C      2.080167    0.191518    0.097217
C      1.426007    0.536056   -1.175465
C      0.306828    1.271709   -1.020828
Si    -0.086378    1.651478    0.778103
C      1.434740    0.687077    1.254944
C      1.992319    0.401613    2.479193
C     -0.500218    1.729804   -2.086205
S      0.164850    2.784998   -3.307482
C     -1.320119    2.893091   -4.178349
C     -2.265341    2.145615   -3.549450
C     -3.627764    1.833657   -3.777726
C     -4.062739    1.005502   -2.801194
C     -2.948532    0.696340   -1.796076
C     -1.823465    1.490714   -2.376174
H      1.607491    1.833338    4.037198
H      0.622020    0.329132    4.135140
H      2.755338    0.114685    5.744821
H      4.462473   -1.105325    4.162782
H      3.770253   -0.957793   -0.624998
H      1.832135    0.208261   -2.123765
H      0.030560    3.091012    1.125057
H     -1.335693    0.994177    1.245406
H     -1.394602    3.483325   -5.080370
H     -4.216266    2.201252   -4.606412
H     -5.062037    0.603595   -2.724380
H     -2.724753   -0.373922   -1.780449
H     -3.224937    1.046357   -0.797903
