24

F      0.986729    0.174883   -1.456952
B      0.459418    0.822525   -0.265972
F      0.797925    2.236859   -0.285381
N      1.008339    0.197510    1.005598
C      2.319112    0.035538    1.557681
C      2.566877   -0.554611    2.701625
Br     4.337384   -0.749150    3.402301
C      1.430850   -1.075103    3.450999
C      0.195594   -0.960725    3.001908
C     -0.107369   -0.302249    1.720570
N     -1.198918   -0.073734    1.091334
N     -1.033323    0.590924   -0.107759
C     -1.955641    0.961270   -0.957084
C     -3.388966    0.682126   -0.700678
C     -1.559153    1.669011   -2.188953
H      3.155265    0.434793    0.976084
H      1.656620   -1.566815    4.407748
H     -0.604981   -1.369827    3.608589
H     -3.548123    0.818970    0.407036
H     -4.052380    1.390997   -1.193069
H     -3.658965   -0.375093   -0.903252
H     -1.572572    2.780602   -2.010994
H     -0.582573    1.399354   -2.588319
H     -2.309209    1.510481   -3.014148
