40

C      3.549053    3.957601    3.543728
C      2.816652    4.508298    4.618097
C      1.470335    4.097652    4.456435
C      0.259475    4.210829    5.035554
S     -0.867443    3.311485    4.065932
C      0.334728    2.811424    2.908826
C      0.064716    1.970773    1.737810
C     -1.200413    1.477732    1.425028
C     -1.372940    0.678579    0.283334
C     -2.621651    0.153544   -0.083048
C     -2.798556   -0.637488   -1.211036
N     -4.037688   -1.078445   -1.454390
C     -4.249449   -1.850257   -2.541766
C     -3.276368   -2.236355   -3.450379
C     -3.640432   -3.054832   -4.556342
C     -2.736588   -3.499094   -5.528889
C     -1.402620   -3.083314   -5.355390
N     -0.390694   -3.402015   -6.175937
S      0.964274   -2.683377   -5.554767
N      0.328575   -1.938148   -4.220900
C     -0.989042   -2.212517   -4.187594
C     -1.952945   -1.768530   -3.195156
C     -1.696480   -0.940264   -2.038118
C     -0.434449   -0.407877   -1.665205
C     -0.267564    0.392183   -0.520267
C      0.960281    0.927516   -0.131383
N      1.148922    1.699854    0.964591
C      1.516497    3.342364    3.306729
N      2.733072    3.211391    2.698989
H      4.603088    4.041057    3.312859
H      3.230537    5.125134    5.404466
H     -0.049167    4.735586    5.927766
H     -2.056546    1.703086    2.052723
H     -3.496254    0.365466    0.530769
H     -5.286316   -2.160728   -2.657548
H     -4.682044   -3.364139   -4.668782
H     -3.037583   -4.122014   -6.362536
H      0.445478   -0.611899   -2.268953
H      1.860795    0.743186   -0.712496
H      2.918664    2.686583    1.848233
