33

C     -0.319372   -6.140010    1.350788
C      0.436918   -5.664759    0.291168
C      0.486012   -4.291817    0.042361
C     -0.225282   -3.411431    0.860924
N     -0.966300   -3.883872    1.900067
C     -0.998165   -5.217058    2.120809
C     -0.240935   -1.931675    0.683029
C     -0.985708   -1.118877    1.554820
C     -1.035254    0.277246    1.432819
C     -0.317442    0.913108    0.402200
C      0.430436    0.130160   -0.477727
C      0.471918   -1.278850   -0.343367
S      1.255045    1.059772   -1.688420
C      0.608851    2.519423   -1.033161
C      0.632059    3.919669   -1.251557
N      1.295971    4.590982   -2.215958
C      1.117715    5.929479   -2.160736
C      0.338925    6.605222   -1.225738
C     -0.336652    5.884806   -0.239406
C     -0.167581    4.501308   -0.276493
N     -0.666082    3.497453    0.514668
C     -0.189772    2.289276    0.049467
H     -0.378392   -7.199568    1.570594
H      0.988225   -6.354009   -0.342369
H      1.083779   -3.944359   -0.791431
H     -1.606740   -5.530354    2.964098
H     -1.554400   -1.576204    2.365056
H     -1.628520    0.853920    2.136776
H      1.070263   -1.835869   -1.056703
H      1.646711    6.484768   -2.931891
H      0.259722    7.686920   -1.266524
H     -0.952252    6.375217    0.505520
H     -1.281284    3.586043    1.312971
