32

O      1.652846   -5.163855   -4.171785
N      2.109614   -4.952345   -3.039324
C      1.689499   -3.724743   -2.351578
C      0.800863   -2.843848   -2.983191
C      0.404139   -1.676540   -2.323955
C      0.891018   -1.391471   -1.044410
C      0.481945   -0.196242   -0.374773
C      0.138073    0.807926    0.187959
C     -0.271750    2.003180    0.858142
C     -1.406630    1.993687    1.673211
C     -1.821481    3.159989    2.337941
C     -2.959513    3.168108    3.160806
C     -3.358972    4.334843    3.814577
C     -2.626854    5.507588    3.654564
C     -1.493194    5.516963    2.840336
C     -1.077628    4.352116    2.175548
C      0.060322    4.345737    1.353290
C      0.460786    3.178446    0.698622
C      1.777396   -2.273862   -0.418894
C      2.180585   -3.443982   -1.069163
O      2.896245   -5.704699   -2.446860
H      0.411362   -3.048558   -3.978432
H     -0.285956   -0.991953   -2.813770
H     -1.972037    1.071658    1.791663
H     -3.545255    2.261953    3.298896
H     -4.241894    4.326732    4.448463
H     -2.937260    6.416561    4.163320
H     -0.934588    6.443535    2.728207
H      0.645056    5.252664    1.216172
H      1.345323    3.195889    0.066498
H      2.158295   -2.055124    0.577037
H      2.870908   -4.118381   -0.566408
