43

C      1.093183   -3.284176    3.091939
C     -0.128129   -2.337507    2.984858
C     -0.048830   -1.257712    4.091141
C     -1.407502   -3.171457    3.214608
C     -1.606852   -3.895887    4.408610
C     -2.767967   -4.641696    4.617875
C     -3.756154   -4.672534    3.642033
C     -3.578228   -3.961400    2.456724
C     -2.405873   -3.226627    2.228355
N     -2.274449   -2.481862    1.051729
C     -1.130556   -1.756531    0.702504
C     -1.084716   -1.086587   -0.529746
C      0.019668   -0.307839   -0.900457
C      0.027188    0.360938   -2.199048
N     -0.894873    0.342026   -3.147078
C     -0.366368    1.135312   -4.133101
C     -0.867328    1.504312   -5.387963
C     -0.082006    2.344608   -6.192509
C      1.168125    2.803588   -5.756798
C      1.681681    2.442955   -4.504815
C      0.873343    1.610718   -3.740382
O      1.135146    1.117116   -2.496810
C      1.082635   -0.196351    0.000113
C      1.036977   -0.843143    1.239102
C     -0.070837   -1.628576    1.613130
H      2.043471   -2.750703    2.979620
H      1.140798   -3.792970    4.061013
H      1.059292   -4.059542    2.316322
H      0.860292   -0.651091    4.013252
H     -0.904693   -0.573358    4.035761
H     -0.043776   -1.694154    5.096150
H     -0.857382   -3.883181    5.196227
H     -2.901182   -5.190996    5.546153
H     -4.666778   -5.242432    3.803938
H     -4.365411   -3.980956    1.707973
H     -2.901711   -2.723170    0.296262
H     -1.926471   -1.169982   -1.215243
H     -1.835111    1.147233   -5.721558
H     -0.452576    2.643574   -7.171212
H      1.753098    3.454396   -6.404543
H      2.644832    2.787320   -4.150640
H      1.958168    0.400442   -0.247137
H      1.882122   -0.719679    1.912423
