20

N      0.642686   -1.935475    0.128477
C      0.992982   -0.831938    0.044933
C      1.464384    0.519151   -0.069425
C      2.852611    0.734539   -0.033095
C      3.374101    2.025419   -0.118739
C      2.514044    3.112048   -0.240351
C      1.132784    2.908880   -0.277239
C      0.589838    1.614103   -0.193575
C     -0.854253    1.461154   -0.247845
C     -1.680269    0.639782   -1.048829
N     -2.979489    0.818373   -0.795110
N     -2.989118    1.738556    0.181450
C     -1.742286    2.166001    0.537042
H      3.536775   -0.107370    0.065944
H      4.450018    2.182066   -0.090105
H      2.916341    4.120162   -0.310284
H      0.480038    3.773619   -0.385325
H     -1.393122   -0.074241   -1.810962
H     -3.885532    2.030971    0.556914
H     -1.606041    2.910027    1.308966
