46

Si    -1.044623   -3.576370    2.270150
C     -0.811871   -1.733731    2.451023
C     -0.267927   -1.187033    1.341517
C     -0.034688    0.257966    1.119989
C     -0.567635    1.226284    1.998444
C     -0.525736    2.590750    1.697217
C      0.029950    2.978017    0.482062
C      0.569029    2.025155   -0.390321
C      0.630418    0.653940   -0.069002
C      1.248744   -0.362092   -1.005022
C      2.277620   -0.045120   -1.961780
C      3.091016    1.118676   -1.934373
C      4.049119    1.403389   -2.915074
C      4.256531    0.518389   -3.960805
C      3.535382   -0.669243   -4.002083
C      2.579107   -0.966264   -3.004149
C      1.938511   -2.228715   -3.040817
C      1.974400   -3.368779   -3.899843
C      1.162529   -4.315656   -3.329450
O      0.633131   -3.845397   -2.176534
C      1.090297   -2.568487   -1.992243
C      0.770805   -1.704799   -0.936060
C      0.043070   -2.159108    0.268370
C     -0.296642   -3.430582    0.573389
C     -1.088792    3.591039    2.604373
C     -0.658013    4.872112    2.910659
C     -1.565097    5.435834    3.839832
C     -2.539996    4.495985    4.075799
N     -2.248075    3.388779    3.323524
H     -0.196977   -4.345128    3.213135
H     -2.477602   -3.957379    2.242156
H     -1.128687   -1.245138    3.356450
H     -1.036881    0.912117    2.925078
H      0.025988    4.023618    0.182239
H      0.912397    2.387139   -1.356536
H      3.026040    1.817653   -1.103403
H      4.639225    2.313919   -2.845996
H      4.998680    0.735493   -4.724080
H      3.741842   -1.370246   -4.806783
H      2.534812   -3.488219   -4.815487
H      0.878264   -5.322920   -3.599786
H     -0.137641   -4.321990   -0.009429
H      0.228592    5.349019    2.512620
H     -1.512457    6.421288    4.284044
H     -3.417122    4.519856    4.708255
H     -2.813019    2.551544    3.280435
