48

Si    -3.084026    2.745352    0.855060
C     -2.983800    2.144114    2.619598
C     -2.070960    1.158052    2.754113
C     -1.587466    0.634264    4.041728
C     -2.195302    0.901019    5.273664
C     -1.629616    0.411418    6.446238
C     -0.467782   -0.329965    6.350836
N      0.144403   -0.617659    5.183219
C     -0.416546   -0.143501    4.033995
C      0.241555   -0.564133    2.763707
C      1.456617   -1.266709    2.792545
C      2.056124   -1.748927    1.628474
C      1.419466   -1.660381    0.391440
C      2.083794   -2.248720   -0.736807
C      1.547072   -2.333379   -2.036279
C      2.247215   -2.913653   -3.155652
S      2.659280   -4.592714   -3.244769
C      3.416185   -4.433696   -4.805137
C      3.331396   -3.137576   -5.168095
C      3.687498   -2.256162   -6.217843
C      3.236473   -0.969900   -5.848819
N      2.605816   -0.982142   -4.605845
C      2.699855   -2.303649   -4.272599
C      0.236550   -1.847515   -2.091631
C     -0.564953   -1.947741   -3.207691
S     -2.155257   -1.395451   -2.897866
C     -1.780997   -1.049042   -1.260777
C     -0.446424   -1.229076   -0.968698
C      0.137662   -1.007445    0.331062
C     -0.358335   -0.316558    1.499250
C     -1.417243    0.734520    1.493738
C     -1.733023    1.524494    0.444126
H     -2.643929    4.153444    0.711760
H     -4.374133    2.397698    0.213251
H     -3.536167    2.652596    3.392490
H     -3.105727    1.488571    5.336002
H     -2.083314    0.608440    7.411003
H      0.015539   -0.730637    7.237340
H      1.960889   -1.439799    3.742905
H      3.015720   -2.255193    1.725062
H      3.079077   -2.673718   -0.584030
H      3.853555   -5.281846   -5.311192
H      4.207710   -2.496320   -7.135631
H      3.319681   -0.031973   -6.383042
H      2.182321   -0.234981   -4.067973
H     -0.329816   -2.353929   -4.182596
H     -2.585709   -0.736965   -0.612108
H     -1.302705    1.518523   -0.544163
