43

C      5.653951    1.707082   -3.814046
C      4.477970    1.620431   -3.056836
C      4.643023    0.473944   -2.260971
C      4.000611   -0.250875   -1.316809
S      5.034994   -1.586910   -0.885766
C      6.290425   -1.115998   -1.989277
C      5.880616    0.000334   -2.618274
O      6.567174    0.697739   -3.562918
C      2.695931   -0.081282   -0.678826
C      1.656388   -0.925391   -1.109105
C      0.402767   -0.756874   -0.528946
O     -0.683142   -1.508354   -0.860608
C     -1.689755   -1.032918   -0.080330
C     -1.255591   -0.017002    0.713311
S     -2.560668    0.594152    1.718146
C     -3.687196   -0.551043    1.038389
C     -5.072955   -0.753128    1.318197
C     -5.830833   -1.750968    0.650131
C     -5.076806   -2.472196   -0.271202
C     -5.517954   -3.497919   -1.071668
O     -4.485446   -3.966317   -1.852797
C     -3.364312   -3.229851   -1.548549
C     -3.720759   -2.330104   -0.596345
C     -3.027817   -1.321337    0.103688
C      0.129687    0.195330    0.442927
C      1.173485    1.051641    0.882993
C      0.922110    2.028218    1.870729
C      1.941712    2.868641    2.311319
C      3.218061    2.745212    1.777912
C      3.479539    1.782207    0.798856
C      2.472786    0.911305    0.317502
H      5.983171    2.417855   -4.560978
H      3.641080    2.302951   -3.096432
H      7.216333   -1.658530   -2.110551
H      1.811216   -1.682699   -1.870796
H     -5.562005   -0.126934    2.062547
H     -6.881448   -1.914660    0.852735
H     -6.464924   -3.998707   -1.216007
H     -2.463208   -3.485034   -2.087472
H     -0.065071    2.144932    2.308567
H      1.739199    3.616664    3.073614
H      4.017695    3.395907    2.123548
H      4.497114    1.718192    0.417970
