48

Si    -2.924569    1.231604    2.933821
C     -1.444414    2.205467    2.365447
C     -0.622295    1.458292    1.598313
C      0.704647    1.894930    1.136914
C      1.515552    0.988303    0.546517
C      1.016357   -0.329399    0.295464
S      2.025126   -1.546058   -0.343316
C      0.725432   -2.692304   -0.484474
C     -0.449779   -2.058711   -0.079045
C     -1.674199   -2.778114   -0.350833
C     -2.940212   -2.265579   -0.318899
S     -4.081907   -3.489787   -0.704277
C     -2.837416   -4.638581   -1.012824
C     -1.573651   -4.112663   -0.828178
C     -0.392575   -4.837270   -1.121663
C     -0.300664   -6.176971   -1.577829
C      0.941147   -6.735611   -1.874689
C      2.098584   -5.975901   -1.730863
C      2.025941   -4.653099   -1.282910
C      0.785384   -4.056883   -0.962197
C     -0.271081   -0.794927    0.546722
C     -1.114703    0.068625    1.336475
C     -2.230067   -0.243605    2.025717
C      1.247101    3.238050    1.332001
C      2.241607    3.601679    2.274749
C      2.740076    4.944275    2.442865
C      2.298890    6.060644    1.692152
C      1.325068    5.674537    0.780827
C      0.666014    6.474064   -0.113491
O     -0.216713    5.717217   -0.836638
C     -0.112951    4.424873   -0.395080
C      0.823233    4.351660    0.604187
H     -4.190104    1.712613    2.330313
H     -2.946060    1.031457    4.402344
H     -1.280495    3.214122    2.711724
H      2.518148    1.249415    0.218507
H     -3.288017   -1.263397   -0.125124
H     -3.125575   -5.624803   -1.346626
H     -1.189655   -6.786585   -1.707654
H      1.005646   -7.762987   -2.223932
H      3.066186   -6.412583   -1.966579
H      2.957278   -4.101127   -1.181028
H     -2.706248   -1.205168    2.117224
H      2.655505    2.825292    2.920028
H      3.507212    5.106617    3.201779
H      2.680982    7.062148    1.828184
H      0.690213    7.525248   -0.362752
H     -0.759505    3.712027   -0.887475
