43

Si     5.066828    2.393898    2.834348
C      6.092414    2.022516    1.334993
C      5.350251    1.460767    0.361947
C      5.906805    1.074446   -0.910316
C      5.126180    0.518731   -1.847357
C      3.689577    0.287337   -1.609366
C      2.853821   -0.292145   -2.574235
C      3.295781   -0.693892   -3.821143
S      2.049393   -1.368787   -4.790295
C      0.883961   -1.134814   -3.550290
C      1.462020   -0.560502   -2.452584
C      0.812345   -0.203325   -1.198643
C     -0.578810   -0.391182   -0.877459
C     -1.694006   -0.914796   -1.546041
N     -2.919402   -0.962177   -0.969911
C     -3.135000   -0.506103    0.284513
C     -2.084908    0.028124    1.016227
C     -0.814108    0.074889    0.412775
S      0.600314    0.691321    1.142275
C      1.623256    0.378003   -0.215150
C      3.032719    0.632334   -0.382190
C      3.905998    1.257157    0.673099
C      3.593246    1.687404    1.915499
C     -4.532230   -0.616954    0.800357
C     -4.924528   -0.193175    2.074341
C     -6.254535   -0.334548    2.476295
C     -7.175168   -0.895527    1.604981
C     -6.725495   -1.293661    0.362141
N     -5.445519   -1.166989   -0.048047
H      4.926232    3.847714    3.089591
H      5.444924    1.570993    4.008390
H      7.146243    2.249549    1.302239
H      6.962949    1.239523   -1.097648
H      5.573321    0.239473   -2.792360
H      4.283892   -0.642756   -4.253405
H     -0.122013   -1.448661   -3.759555
H     -1.684274   -1.316142   -2.548105
H     -2.209681    0.405055    2.022690
H      2.656313    1.684448    2.436655
H     -4.223958    0.248002    2.772891
H     -6.564989   -0.007197    3.464647
H     -8.214650   -1.019621    1.885348
H     -7.398663   -1.739722   -0.364080
