43

C      0.769764   -0.914160    3.736312
C      2.229517   -0.862254    3.296842
C      2.484490   -0.879142    1.772600
C      1.764813    0.312902    1.114392
O      2.334037    1.397891    1.013515
N      0.464898    0.050096    0.729983
C     -0.476041    0.921675    0.139591
C     -0.231353    2.269505   -0.114157
C     -1.222589    3.060190   -0.703037
Cl    -0.859643    4.728202   -0.994128
C     -2.471731    2.518451   -1.047066
O     -3.377309    3.375819   -1.617588
C     -4.631264    2.849370   -2.028288
C     -2.716875    1.164650   -0.787838
C     -1.727915    0.365568   -0.199926
O     -1.871286   -0.971023    0.098423
C     -3.069939   -1.611794   -0.319836
C      2.286033   -2.203055    1.030735
C      1.915144   -3.397810    1.664414
C      1.758732   -4.580034    0.934037
C      1.982999   -4.592442   -0.439586
C      2.374926   -3.424520   -1.084667
C      2.532593   -2.244147   -0.355811
H      0.224976   -1.745271    3.282430
H      0.715734   -1.031977    4.823685
H      0.248412    0.015231    3.487998
H      2.779612   -1.682179    3.774410
H      2.657392    0.062141    3.707937
H      3.559706   -0.671955    1.653717
H      0.126343   -0.904003    0.832829
H      0.718344    2.729744    0.137043
H     -5.203131    3.663950   -2.483060
H     -4.503545    2.069427   -2.785910
H     -5.202735    2.479870   -1.170799
H     -3.677496    0.734615   -1.037557
H     -2.991633   -2.670442   -0.054917
H     -3.938329   -1.200939    0.205030
H     -3.194940   -1.548883   -1.405882
H      1.747371   -3.444893    2.736704
H      1.468278   -5.495994    1.443178
H      1.864546   -5.513499   -1.003783
H      2.565683   -3.430444   -2.154955
H      2.854839   -1.347761   -0.885252
