50

C      3.994308    3.018900    1.768422
C      3.155931    4.143914    1.244020
C      1.997751    3.645061    0.796267
C      0.820402    4.277670    0.352031
C      0.500553    5.619245    0.082660
C     -0.822150    5.599876   -0.287086
O     -1.316762    4.335514   -0.252117
C     -0.308101    3.484862    0.151753
C     -0.388521    2.038044    0.303313
C      0.797605    1.371496    0.525371
C      0.791916   -0.120797    0.444483
C      1.884848   -0.932123    0.085036
C      3.078516   -0.546088   -0.482759
N      3.828556   -1.676291   -0.710822
C      3.106465   -2.795351   -0.373026
C      1.886101   -2.373038    0.101543
C      0.793875   -3.174528    0.451671
C     -0.355769   -2.374150    0.655616
C     -0.378371   -0.928042    0.614570
C     -1.661685   -0.186490    0.591303
C     -2.892932   -0.729909    0.705363
Si    -4.231014    0.544836    0.452841
C     -2.888517    1.805318    0.209086
C     -1.650920    1.274327    0.321926
C      0.799731   -4.627574    0.481821
C      1.753727   -5.440151    0.968576
C      1.345037   -6.813015    0.820624
C      0.131334   -6.857298    0.254689
C     -0.354621   -5.460597   -0.013605
C      1.972846    2.186587    0.923233
C      3.109587    1.824846    1.546971
H      4.208912    3.153584    2.832684
H      4.931102    2.926244    1.211457
H      3.422218    5.187442    1.301585
H      1.137007    6.489218    0.147430
H     -1.525043    6.363603   -0.588589
H      3.468214    0.419389   -0.773625
H      4.750783   -1.685151   -1.126881
H      3.517761   -3.779121   -0.551411
H     -1.292688   -2.895538    0.839363
H     -3.162999   -1.758585    0.871739
H     -5.025842    0.774883    1.683413
H     -5.020276    0.291484   -0.776786
H     -3.151234    2.838010    0.050957
H      2.684932   -5.140608    1.425285
H      1.939675   -7.659804    1.127677
H     -0.424448   -7.753345    0.024428
H     -0.529108   -5.309138   -1.083540
H     -1.275102   -5.266434    0.545477
H      3.372777    0.829239    1.870368
