44

C     -0.726115    4.338189   -5.223780
O     -1.283428    3.035969   -5.103703
C     -1.669540    2.640789   -3.852652
C     -1.543241    3.386067   -2.680257
C     -1.980380    2.859018   -1.458874
C     -2.554854    1.582749   -1.395426
C     -3.008174    1.000667   -0.081327
N     -2.025612    0.072566    0.433869
C     -2.191274   -1.290218    0.304438
O     -3.200638   -1.812444   -0.153913
C     -1.039324   -2.134627    0.725558
C     -0.865106   -3.379876    0.120559
C      0.206853   -4.205095    0.488284
C      1.122493   -3.814680    1.473712
N      2.216680   -4.640785    1.853460
C      3.203500   -4.231603    2.826275
C      4.343280   -5.209948    2.639104
C      3.643519   -6.482202    2.207904
C      2.431912   -5.973249    1.462190
O      1.779104   -6.677204    0.707481
C      0.922301   -2.565376    2.085513
C     -0.146551   -1.733337    1.721182
C     -2.672437    0.837416   -2.574911
C     -2.234013    1.365284   -3.791256
H     -0.484438    4.502562   -6.278306
H      0.203916    4.423461   -4.652110
H     -1.447009    5.106020   -4.923962
H     -1.108809    4.379942   -2.680017
H     -1.870454    3.457407   -0.557203
H     -3.985565    0.519050   -0.196455
H     -3.123408    1.792883    0.666646
H     -1.094549    0.435527    0.577177
H     -1.559347   -3.718396   -0.646735
H      0.296378   -5.154813   -0.030883
H      2.766397   -4.317184    3.827481
H      3.549588   -3.208639    2.650103
H      5.003998   -4.863237    1.834553
H      4.948527   -5.336940    3.540895
H      4.276828   -7.090630    1.557635
H      3.307631   -7.071178    3.066970
H      1.576879   -2.211882    2.876520
H     -0.280265   -0.792857    2.247805
H     -3.104838   -0.162063   -2.549927
H     -2.333370    0.774838   -4.698894
