18

O     -2.271414   -1.913073    1.903870
C     -1.172850   -1.408748    2.015941
N     -0.281485   -1.553447    3.034395
C      0.859434   -0.839762    2.829240
C      0.693617   -0.157341    1.547154
C      1.550933    0.681419    0.861737
C      1.105966    1.212843   -0.354495
N      1.980191    1.962411   -1.149123
C     -0.144224    0.808442   -0.879502
C     -0.998225   -0.045018   -0.169379
C     -0.548820   -0.506958    1.048706
O      1.833826   -0.762279    3.549282
H     -0.445872   -2.126401    3.846186
H      2.532694    0.909967    1.262589
H      2.701082    2.457710   -0.632043
H      1.523323    2.555301   -1.835664
H     -0.455939    1.162568   -1.860558
H     -1.962433   -0.344772   -0.565981
