32

F     -0.717401    7.449152    0.459288
C     -0.409385    6.182738    0.150895
C     -0.360518    5.796246   -1.184183
C     -0.039724    4.476588   -1.510357
C     -0.143624    5.275623    1.171093
C      0.178027    3.953902    0.854298
C      0.230990    3.549867   -0.490029
N      0.557747    2.206447   -0.817054
N      0.826276    1.278911    0.137231
C      1.080438    0.168041   -0.574229
C      0.949408    0.490341   -1.942728
N      0.620329    1.772813   -2.101750
C      1.425099   -1.108534    0.053712
C      1.502971   -1.215739    1.450900
C      1.831526   -2.429824    2.069014
C      2.088422   -3.560305    1.297122
O      2.418200   -4.800562    1.767466
C      2.507114   -4.949553    3.179091
C      2.013417   -3.463489   -0.093234
C      1.685396   -2.251709   -0.712654
H     -0.572081    6.523298   -1.962036
H     -0.004334    4.184998   -2.558554
H     -0.188379    5.602382    2.205307
H      0.384147    3.252501    1.660658
H      1.075477   -0.135581   -2.814708
H      1.306935   -0.347533    2.078315
H      1.876514   -2.451841    3.152705
H      2.776802   -5.989078    3.389068
H      1.542465   -4.752473    3.658362
H      3.293679   -4.311023    3.594641
H      2.212768   -4.342255   -0.702629
H      1.640699   -2.231079   -1.797796
