30

C      1.092622   -2.492158    2.436362
C      1.503932   -2.994196    1.082933
C      1.105027   -2.404470   -0.119707
C      0.287988   -1.237604   -0.285341
C     -0.402252   -0.953007   -1.402622
C     -1.239715    0.241003   -1.563265
C     -1.972288    0.861026   -0.525392
C     -2.794271    1.997901   -0.718259
C     -2.970213    2.614461   -1.967486
C     -2.279504    2.029673   -3.055117
N     -2.322917    2.459573   -4.325537
S     -1.351404    1.436814   -5.199734
N     -0.833745    0.403308   -4.011024
C     -1.397975    0.815516   -2.860514
S      1.779729   -3.250176   -1.459803
C      2.569945   -4.374973   -0.464603
C      2.361046   -4.143152    0.877766
C      2.952712   -4.981942    1.964147
H      0.012612   -2.314165    2.470755
H      1.609769   -1.553837    2.661879
H      1.328711   -3.207470    3.229262
H      0.234133   -0.564429    0.565475
H     -0.361791   -1.603419   -2.273838
H     -1.922231    0.446220    0.481732
H     -3.320324    2.410462    0.143437
H     -3.603864    3.483004   -2.100518
H      3.162800   -5.160275   -0.913490
H      3.536060   -4.361360    2.651925
H      3.619195   -5.750324    1.558552
H      2.161889   -5.485584    2.529203
