38

C      3.694866    6.265960    0.772089
C      3.479120    6.017921    2.104770
O      2.797090    4.857355    2.264119
C      2.561203    4.335761    1.024876
C      3.104404    5.183561    0.074048
C      1.833100    3.073861    0.948431
C      1.553399    2.475870   -0.300480
C      0.853567    1.265871   -0.343119
O      0.527186    0.596488   -1.494326
C     -0.153488   -0.542647   -1.129031
C     -0.245637   -0.572736    0.257100
C     -0.927517   -1.697068    0.803921
C     -1.201941   -2.050561    2.089980
N     -1.889967   -3.244129    2.005658
C     -2.036925   -3.620239    0.682737
C     -1.436357   -2.657877   -0.099550
C     -1.362607   -2.662108   -1.513826
C     -1.868879   -3.618181   -2.413920
C     -1.668931   -3.399305   -3.767659
N     -1.019273   -2.327370   -4.280798
C     -0.538121   -1.416282   -3.399100
C     -0.676971   -1.527108   -2.015657
C      0.384021    0.557594    0.743704
C      0.631564    1.104104    2.035026
N      0.233737    0.522391    3.153781
S      0.774330    1.564071    4.338879
N      1.502004    2.731247    3.403424
C      1.365988    2.376433    2.106841
H      4.212162    7.118810    0.356126
H      3.732080    6.538662    3.017711
H      3.081476    5.044533   -0.997408
H      1.870404    2.935751   -1.231304
H     -0.997081   -1.608113    3.052997
H     -2.236375   -3.767378    2.799629
H     -2.555865   -4.537150    0.439303
H     -2.398227   -4.498667   -2.071808
H     -2.039312   -4.106112   -4.505425
H     -0.024136   -0.572569   -3.851993
