42

O     -0.095883    5.301180    1.345904
C     -0.179446    4.261485    1.992517
C     -0.402768    4.296031    3.459828
C     -0.555721    5.519541    4.120518
C     -0.763818    5.536083    5.498581
C     -0.808512    4.337022    6.210172
C     -0.652351    3.115410    5.547552
C     -0.466604    3.082348    4.162478
N     -0.266162    1.864517    3.493127
C     -0.146617    1.777251    2.096855
C     -0.022639    0.534352    1.465188
C      0.143706    0.441468    0.070499
C      0.245567   -0.864478   -0.579158
C      1.474187   -1.398622   -0.967488
C      1.527762   -2.654533   -1.575815
C      0.349328   -3.368182   -1.798539
C      0.343394   -4.709550   -2.433684
C     -0.842707   -5.392424   -2.715584
C     -0.788615   -6.654646   -3.304528
C      0.447071   -7.212722   -3.602621
C      1.579872   -6.481247   -3.299881
N      1.558174   -5.255005   -2.729284
N     -0.859662   -2.858801   -1.430282
C     -0.880663   -1.639309   -0.838872
C      0.206545    1.623024   -0.686165
C      0.103836    2.870255   -0.067305
C     -0.066648    2.942570    1.319500
H     -0.510881    6.453848    3.563639
H     -0.884107    6.484503    6.017043
H     -0.962991    4.352524    7.287226
H     -0.676567    2.193914    6.123580
H     -0.532488    1.021969    3.987253
H     -0.051837   -0.377769    2.061401
H      2.396560   -0.849114   -0.793993
H      2.487079   -3.071871   -1.868478
H     -1.805730   -4.945667   -2.478970
H     -1.706492   -7.193667   -3.524131
H      0.524657   -8.193281   -4.059417
H      2.570677   -6.874625   -3.511738
H     -1.873986   -1.288944   -0.565533
H      0.333062    1.576777   -1.766563
H      0.156550    3.780060   -0.663955
