37

N     -0.033839    0.601562   -0.154000
C      1.132561    1.356512   -0.215894
C      2.089020    1.361665    0.891730
C      3.318660    2.032166    0.778544
C      4.243990    1.999095    1.818147
C      3.949741    1.290914    2.974738
C      2.727411    0.621784    3.095025
C      1.766285    0.644246    2.064387
C      0.438080   -0.024625    2.162478
C     -0.001050   -0.652269    3.345622
C     -1.272762   -1.223886    3.452991
C     -2.160428   -1.172656    2.382421
C     -3.554667   -1.708646    2.521429
C     -1.755451   -0.545287    1.199148
C     -0.460538   -0.018236    1.064365
C      1.123907    2.040051   -1.414696
C      0.043281    1.557111   -2.189039
C     -0.389086    1.831547   -3.502957
C     -1.438834    1.096381   -4.054961
C     -2.038607    0.080895   -3.323663
C     -1.633443   -0.198406   -2.013424
C     -0.616693    0.584044   -1.426829
H      3.573496    2.578023   -0.125405
H      5.193332    2.518523    1.720208
H      4.669535    1.255113    3.788679
H      2.553294    0.081718    4.020175
H      0.628676   -0.698479    4.228716
H     -1.568756   -1.686116    4.392349
H     -3.585274   -2.540360    3.233164
H     -3.923071   -2.088859    1.562771
H     -4.226233   -0.918803    2.871685
H     -2.496772   -0.431621    0.417981
H      1.858689    2.763683   -1.740555
H      0.111359    2.592228   -4.095531
H     -1.764164    1.300025   -5.071763
H     -2.828170   -0.514315   -3.776961
H     -2.090027   -1.033943   -1.495510
