45

C     -3.273320    1.909903    2.391347
C     -1.927032    2.387111    1.834965
C     -2.002082    3.853615    1.395102
C     -0.805805    2.176990    2.855631
C     -0.667653    2.733511    4.119777
C      0.453113    2.385852    4.876169
C      1.413512    1.496015    4.368854
C      1.270583    0.937847    3.094871
C      0.159075    1.282237    2.342310
C     -0.241452    0.866000    1.014898
C      0.376433    0.004266    0.119924
C     -0.223368   -0.244419   -1.129047
C      0.413191   -1.151527   -2.098401
C     -0.278771   -2.267245   -2.601968
C      0.323831   -3.135455   -3.514934
C      1.630598   -2.888425   -3.938454
C      2.292766   -3.800338   -4.907179
O      1.728628   -4.791198   -5.357090
C      3.675816   -3.466400   -5.328830
C      4.256077   -2.383790   -4.800184
N      3.668216   -1.562602   -3.876939
C      2.342989   -1.773551   -3.466679
C      1.730999   -0.923126   -2.539628
C     -1.447523    0.393510   -1.438602
C     -2.072026    1.262973   -0.538829
C     -1.460821    1.492221    0.683572
H     -4.067271    1.992218    1.640132
H     -3.230934    0.860872    2.709229
H     -3.578511    2.503163    3.261030
H     -2.755795    3.997306    0.612333
H     -1.043333    4.205717    0.994936
H     -2.267041    4.508493    2.233183
H     -1.407511    3.420729    4.516833
H      0.584740    2.807253    5.870122
H      2.278304    1.237576    4.975534
H      2.018148    0.250308    2.714360
H      1.309361   -0.483005    0.387371
H     -1.294440   -2.476360   -2.269839
H     -0.220740   -3.999621   -3.888165
H      4.153097   -4.111395   -6.052932
H      5.262775   -2.090422   -5.084195
H      4.119516   -0.685202   -3.646007
H      2.278379   -0.063416   -2.159212
H     -1.918439    0.217519   -2.404735
H     -3.009561    1.743016   -0.799802
