48

C     -3.233908    1.435740   -3.850530
C     -1.712223    1.276759   -3.755888
C     -0.994348    2.512171   -4.311052
C     -1.247867    0.005026   -4.470133
C     -1.363243   -0.327626   -5.812866
C     -0.857247   -1.558542   -6.234750
C     -0.247948   -2.434833   -5.322358
C     -0.133925   -2.095849   -3.970659
C     -0.635938   -0.874654   -3.549933
C     -0.656796   -0.271498   -2.234069
C     -0.179605   -0.747238   -1.021040
C     -0.319352    0.041583    0.136551
C      0.177314   -0.440202    1.436800
C     -0.248548   -1.663934    1.957978
C      0.217332   -2.130023    3.193976
C      1.140392   -1.369249    3.954295
C      1.560577   -0.149832    3.426198
C      1.091816    0.322894    2.181712
S      2.673379    0.636782    4.467805
C      2.616170   -0.619089    5.634346
C      3.323456   -0.671714    6.852581
C      3.156434   -1.777798    7.687679
C      2.306273   -2.810828    7.323686
C      1.607321   -2.753470    6.114137
C      1.753822   -1.643129    5.241137
C     -0.946007    1.305641    0.029860
C     -1.428533    1.787354   -1.191116
C     -1.278986    0.991441   -2.315591
H     -3.758030    0.556737   -3.455609
H     -3.580293    2.306141   -3.281427
H     -3.557216    1.570067   -4.889221
H     -1.270016    3.416616   -3.756578
H     -1.246651    2.680562   -5.364350
H      0.095935    2.409138   -4.248021
H     -1.832635    0.346290   -6.521912
H     -0.934517   -1.843175   -7.281548
H      0.140319   -3.388486   -5.672285
H      0.339607   -2.780254   -3.275116
H      0.308067   -1.716089   -0.968324
H     -0.965516   -2.271658    1.408198
H     -0.139352   -3.085768    3.569556
H      1.452378    1.274872    1.798349
H      3.990249    0.136732    7.139474
H      3.698106   -1.826854    8.629355
H      2.181097   -3.669274    7.979070
H      0.944796   -3.571779    5.843649
H     -1.070392    1.922256    0.918919
H     -1.908360    2.758947   -1.247000
