35

C      5.925830    2.764191   -1.235631
C      4.748443    3.069953   -2.145040
O      3.701703    3.713156   -1.419566
C      2.743857    2.943092   -0.824445
C      2.739099    1.554373   -0.723490
C      1.685892    0.891525   -0.075248
C      0.626838    1.608119    0.481686
N     -0.465099    1.017071    1.149548
C     -0.701586   -0.332211    1.351833
O      0.009240   -1.263041    0.990438
C     -1.976726   -0.563838    2.148680
C     -2.378731   -2.034414    2.164323
C     -2.877109   -2.472755    0.808767
O     -3.315742   -1.719108   -0.049971
O     -2.820841   -3.829750    0.710345
C     -3.263124   -4.338262   -0.548258
C      0.637537    3.003095    0.383365
C      1.688450    3.662034   -0.262508
H      5.649456    2.060555   -0.444879
H      6.754804    2.337237   -1.807295
H      6.273669    3.676682   -0.740016
H      4.401317    2.186807   -2.692565
H      5.078846    3.783936   -2.908191
H      3.539700    0.944814   -1.128020
H      1.729737   -0.191925   -0.024093
H     -1.167924    1.658367    1.495151
H     -1.785017   -0.233035    3.176238
H     -2.781419    0.056478    1.737256
H     -3.192560   -2.188047    2.881099
H     -1.531110   -2.662294    2.460687
H     -4.321339   -4.106096   -0.703557
H     -3.145500   -5.425340   -0.534834
H     -2.653218   -3.934382   -1.362538
H     -0.166222    3.601005    0.803821
H      1.682247    4.747276   -0.330339
