41

O      1.331004    4.114056   -1.895591
C      1.679565    2.933071   -1.988794
C      2.797588    2.551620   -2.951053
C      2.315911    1.697870   -4.088615
C      2.814909    0.477301   -4.504571
C      2.114717   -0.041789   -5.631393
C      1.116158    0.806515   -6.052080
S      1.032769    2.221962   -5.099148
N      1.096345    1.947502   -1.203297
C      1.484744    0.534763   -1.186185
C      1.163208   -0.154273    0.150740
N     -0.234418    0.012182    0.564598
C     -0.932049   -0.845986    1.411439
O     -2.141518   -0.699589    1.607316
C     -0.134555   -1.961670    2.135612
C      0.689666   -1.388926    3.278417
C     -0.279296   -1.457465    4.434138
C     -1.039996   -2.732523    4.146549
O     -0.985702   -2.951628    2.731696
C     -0.962421    1.137277   -0.034116
C     -0.047117    2.322034   -0.363528
H      3.602214    2.062024   -2.392405
H      3.229776    3.475720   -3.355890
H      3.646142   -0.024798   -4.023994
H      2.336350   -0.985338   -6.115084
H      0.435108    0.669949   -6.881065
H      2.551801    0.430487   -1.396195
H      0.928087    0.044464   -1.993382
H      1.780086    0.283342    0.943673
H      1.412731   -1.214722    0.074349
H      0.485899   -2.486055    1.405846
H      1.544977   -2.044382    3.482033
H      1.065528   -0.376434    3.112289
H     -0.961562   -0.599797    4.401838
H      0.206177   -1.463569    5.413714
H     -2.082921   -2.679586    4.471842
H     -0.568054   -3.592221    4.633570
H     -1.764922    1.467201    0.634303
H     -1.429138    0.757011   -0.951013
H      0.369917    2.738778    0.561385
H     -0.627331    3.112337   -0.852356
