20

C     -2.038285   -1.272266   -1.244896
C     -0.787172   -1.382006   -1.958838
C      0.182405   -0.432107   -1.194532
N      1.392868    0.055373   -1.129535
C      1.337364    0.917444   -0.006583
C      0.079586    0.925588    0.581071
N     -0.595586    0.063885   -0.206006
C     -1.910228   -0.371151   -0.156460
C     -2.665192    0.130626    0.828848
C     -2.007584    1.092179    1.751115
C     -0.703849    1.471696    1.635882
O     -0.727621   -2.201690   -3.029716
C     -2.029510   -2.660764   -3.016573
C     -2.834481   -2.142105   -1.986838
H      2.217616    1.471448    0.294728
H     -3.706082   -0.129495    0.975433
H     -2.624503    1.497014    2.549669
H     -0.259277    2.177511    2.330458
H     -2.247801   -3.363424   -3.810930
H     -3.874051   -2.395346   -1.832101
