25

N     -0.811883   -2.065905   -3.179880
C     -1.371806   -1.406436   -2.405110
C     -2.126006   -0.620754   -1.466720
C     -3.496871   -0.433255   -1.705909
C     -4.275805    0.309958   -0.818865
C     -3.692792    0.869555    0.314071
C     -2.330387    0.688718    0.559623
C     -1.525568   -0.054666   -0.324331
C     -0.089926   -0.207631   -0.031393
C      0.332226   -1.280146    0.776734
C      1.684957   -1.486915    1.044349
C      2.635281   -0.633765    0.494946
C      2.231779    0.437290   -0.303978
C      0.873695    0.696223   -0.533949
N      0.525855    1.720330   -1.434840
H     -3.964472   -0.869683   -2.587325
H     -5.337116    0.449223   -1.011125
H     -4.297655    1.447106    1.009314
H     -1.888905    1.133816    1.450372
H     -0.398259   -1.974355    1.187705
H      1.996410   -2.326738    1.659867
H      3.693024   -0.809297    0.672551
H      2.991733    1.072669   -0.751580
H      1.208741    2.469103   -1.488029
H     -0.420258    2.069063   -1.314500
