37

C      4.499442   -1.378679   -0.050955
C      4.101749   -1.118905    1.367267
C      2.804496   -0.790013    1.401588
C      2.001046   -0.460234    2.539334
C      0.709484   -0.161076    2.323264
C      0.078337   -0.154681    0.980060
C     -1.346896    0.183688    0.815338
C     -2.270936    0.518714    1.732794
C     -3.590472    0.773423    1.061835
C     -3.272175    0.530498   -0.383475
C     -1.979958    0.193828   -0.498905
C     -1.195371   -0.132178   -1.645551
C      0.129221   -0.445250   -1.479995
C      0.801262   -0.767555   -2.842842
C     -0.348678   -0.583336   -3.761349
C     -0.741703   -0.636250   -5.100462
C     -2.091543   -0.299515   -5.112238
N     -2.510246   -0.047904   -3.813850
C     -1.435936   -0.227327   -3.020761
C      0.807846   -0.465909   -0.157769
C      2.231728   -0.798520    0.055606
C      3.214961   -1.141004   -0.796043
H      5.277682   -0.682764   -0.377638
H      4.845422   -2.408041   -0.182842
H      4.766027   -1.189693    2.214311
H      2.432874   -0.456230    3.532543
H      0.085816    0.091268    3.174068
H     -2.123610    0.602042    2.797641
H     -3.922690    1.802840    1.224917
H     -4.354801    0.077456    1.419744
H     -3.987849    0.619374   -1.183615
H      1.598682   -0.054730   -3.071292
H      1.161655   -1.799702   -2.874160
H     -0.141882   -0.884286   -5.965735
H     -2.793609   -0.216234   -5.930850
H     -3.443315    0.217940   -3.529148
H      3.158775   -1.247539   -1.864384
