32

Cl    -7.158773    2.795278    1.997534
C     -5.801458    1.956691    1.353571
C     -5.979477    0.712074    0.750724
C     -4.878842    0.028045    0.226495
C     -4.531876    2.526873    1.438517
C     -3.427005    1.848169    0.916313
C     -3.597642    0.594992    0.307935
N     -2.476861   -0.097326   -0.223735
N     -1.221448    0.415161   -0.165785
C     -0.474169   -0.527132   -0.764156
C     -1.333854   -1.575867   -1.157881
N     -2.596427   -1.310902   -0.820225
C      0.974390   -0.396476   -0.931017
C      1.730528   -1.396215   -1.560024
C      3.118387   -1.261760   -1.715178
C      3.772378   -0.124978   -1.243597
O      5.112499    0.128813   -1.330508
C      5.916475   -0.859738   -1.961522
C      3.027540    0.873960   -0.616820
C      1.643846    0.741878   -0.461131
H     -6.969743    0.268647    0.685127
H     -5.034821   -0.942738   -0.240967
H     -4.394406    3.497219    1.908732
H     -2.442616    2.307127    0.990739
H     -1.105685   -2.502579   -1.664793
H      1.262771   -2.299284   -1.942985
H      3.655630   -2.064790   -2.209137
H      6.952087   -0.506511   -1.948951
H      5.624162   -0.997296   -3.007801
H      5.880864   -1.806666   -1.412772
H      3.526236    1.765788   -0.244545
H      1.094586    1.541252    0.032905
