27

C      1.490249   -4.470113    2.143696
C      1.279990   -3.210777    2.684512
C      0.895821   -2.233976    1.768287
N      0.608662   -0.901812    1.949215
C      0.270099   -0.309819    0.755202
C     -0.091426    1.007379    0.465276
C     -0.376573    1.275494   -0.871810
C     -0.765101    2.611703   -1.297510
C     -0.933226    3.817910   -0.578618
N     -1.305084    4.840681   -1.354347
N     -1.377249    4.292366   -2.578771
C     -1.064846    2.966786   -2.597687
N     -0.315566    0.338125   -1.851288
C      0.037978   -0.934883   -1.546140
C      0.341444   -1.293775   -0.228845
C      0.736825   -2.510369    0.410203
C      0.974350   -3.817418   -0.034440
N      1.349227   -4.785795    0.837722
H      1.792714   -5.298050    2.780391
H      1.407518   -3.012239    3.740500
H      0.642216   -0.424252    2.838761
H     -0.143319    1.762634    1.237939
H     -0.801546    4.000478    0.479488
H     -1.647034    4.884012   -3.357711
H     -1.080176    2.393761   -3.514335
H      0.067611   -1.634693   -2.373519
H      0.874524   -4.118767   -1.070921
