37

C     -3.629455   -2.368099    1.951520
C     -3.190456   -1.818385    0.743801
C     -1.808199   -1.618460    0.913220
C     -0.739909   -1.148509    0.225754
S      0.634030   -1.293231    1.285203
C     -0.276147   -1.975861    2.603148
C      0.324868   -2.353278    3.881532
C     -0.393960   -2.899861    4.942070
C      0.272619   -3.227253    6.123248
C      1.638138   -3.003052    6.221100
C      2.283421   -2.457845    5.127618
N      1.661415   -2.132342    3.973421
C     -1.559203   -2.063142    2.190902
O     -2.630653   -2.538338    2.890392
C     -0.689810   -0.622467   -1.114125
N     -1.773126   -0.542912   -1.859811
C     -1.459798   -0.006451   -3.095717
C     -0.133648    0.328718   -3.305138
S      0.742794   -0.056031   -1.870615
C      0.543540    0.904429   -4.461715
N      1.896395    1.135168   -4.386846
C      2.594300    1.672737   -5.434168
C      2.089910    2.052754   -6.671275
C      0.705794    1.837047   -6.800685
N     -0.019842    2.119203   -7.893971
S     -1.582706    1.686625   -7.549732
N     -1.411316    1.122282   -6.000232
C     -0.110340    1.246733   -5.675404
H     -4.607767   -2.685587    2.288211
H     -3.799392   -1.601152   -0.122947
H     -1.460596   -3.079711    4.877942
H     -0.275822   -3.654230    6.958205
H      2.184991   -3.246405    7.124727
H      3.351371   -2.260554    5.147249
H     -2.263190    0.115580   -3.812264
H      3.657811    1.797615   -5.228709
H      2.699165    2.473022   -7.458408
