26

C      0.224841    3.797298    1.157163
C     -0.590118    2.823835    0.605136
C     -0.122619    1.507819    0.452994
C     -1.007487    0.526899   -0.116677
C     -1.932655   -0.349646    0.482731
N     -2.572159   -1.094854   -0.423183
O     -2.076534   -0.682937   -1.652393
C     -1.150741    0.291729   -1.461287
C      1.194804    1.135581    0.861769
C      1.984966    2.153496    1.417218
C      1.515793    3.476269    1.568178
S      3.542531    1.590442    1.872275
C      3.210051    0.015578    1.350327
N      4.153267   -0.943090    1.470594
C      3.777059   -2.153289    1.021113
C      2.545480   -2.448617    0.472975
C      1.602028   -1.428391    0.367953
C      1.930131   -0.127291    0.823972
H     -0.141520    4.814869    1.272497
H     -1.598134    3.089540    0.291003
H     -2.164094   -0.483866    1.530197
H     -0.701543    0.693261   -2.357737
H      2.155951    4.240620    2.002951
H      4.534683   -2.927710    1.116987
H      2.317629   -3.452809    0.131521
H      0.633175   -1.655749   -0.064070
