28

C      3.564845   -1.786629    3.169634
C      3.369369   -0.455035    3.542759
C      2.620847    0.397282    2.728888
C      2.070039   -0.086698    1.543205
C      2.265081   -1.416098    1.170769
C      3.012187   -2.269036    1.981802
O      1.742064   -1.936037    0.013534
C      1.014554   -1.060142   -0.750880
C      0.462684   -1.540755   -1.934667
C     -0.287897   -0.686281   -2.749192
C     -0.493121    0.654993   -2.385749
C     -1.265463    1.552643   -3.225348
C     -1.221012    2.957688   -3.377735
N     -2.122381    3.405293   -4.255485
O     -2.789995    2.275045   -4.696893
C     -2.277616    1.180816   -4.079453
C      0.072302    1.124700   -1.191116
C      0.820039    0.267843   -0.380703
O      1.342586    0.788823    0.776771
H      4.148107   -2.448797    3.804882
H      3.800532   -0.081312    4.468309
H      2.468210    1.433084    3.018362
H      3.163543   -3.304559    1.690670
H      0.617866   -2.575888   -2.226746
H     -0.694604   -1.084823   -3.675951
H     -0.571417    3.674441   -2.895503
H     -2.742046    0.243996   -4.349162
H     -0.069429    2.152772   -0.868107
