47

C     -3.716755    0.419854    1.732181
N     -2.359439   -0.060500    1.662195
C     -1.532578    0.178340    0.547197
O     -1.765361    0.767948   -0.487393
C     -0.263913   -0.454479    0.944072
C      0.981112   -0.706471    0.540648
C      1.513025   -0.302367   -0.708398
C      1.596758    0.979714   -1.222686
C      2.180773    0.991672   -2.524044
S      2.578653    2.225902   -3.684183
C      3.193885    1.044997   -4.776964
C      3.729555    1.402752   -6.076147
C      3.741088    0.607172   -7.210148
C      4.354652    1.242113   -8.330069
C      4.802356    2.504875   -8.020646
S      4.484341    2.915108   -6.393742
C      3.087531   -0.240205   -4.277183
C      2.503470   -0.251793   -2.975441
S      2.097979   -1.487621   -1.818962
N      1.663417   -1.389060    1.546961
C      3.045194   -1.798295    1.509138
C      0.837644   -1.625320    2.663451
O      1.084871   -2.175482    3.716284
C     -0.437336   -1.009840    2.258854
C     -1.689173   -0.777228    2.652941
C     -2.220048   -1.177787    3.903790
C     -1.749224   -0.864309    5.166939
C     -2.537295   -1.467434    6.191761
S     -2.502156   -1.464517    7.936638
C     -3.872233   -2.493353    7.971464
C     -4.347030   -2.834870    6.725938
C     -3.558099   -2.229569    5.701266
S     -3.584418   -2.234627    3.960889
H     -3.895843    0.895158    2.700828
H     -4.402592   -0.419413    1.588620
H     -3.900429    1.153349    0.941510
H      1.259521    1.868694   -0.702967
H      3.317687   -0.389332   -7.246291
H      4.459836    0.794565   -9.310840
H      5.302330    3.209547   -8.670953
H      3.411729   -1.130774   -4.800478
H      3.382018   -2.088522    2.508723
H      3.145958   -2.662790    0.847479
H      3.669359   -0.973278    1.154151
H     -0.886086   -0.237981    5.357945
H     -4.267999   -2.804998    8.928810
H     -5.200558   -3.477579    6.553183
