28

O     -1.046868   -0.886129    1.483494
C     -0.034499   -0.312030    1.099189
C      1.232870   -0.452270    1.839095
C      1.304326   -1.250744    2.987163
C      2.513989   -1.371331    3.674477
C      3.636442   -0.692379    3.205873
O      4.836653   -0.782088    3.845983
C      3.570790    0.102703    2.065414
C      2.362346    0.221447    1.380688
O      2.348637    1.016623    0.264254
C      1.162993    1.136681   -0.419697
C     -0.006047    0.549255   -0.117593
C     -1.203302    0.785425   -0.946641
C     -1.156761    0.629354   -2.343225
C     -2.293134    0.859688   -3.123009
C     -3.479317    1.242491   -2.510047
F     -4.567728    1.462862   -3.258648
C     -3.552324    1.396583   -1.132009
C     -2.416462    1.167050   -0.351429
H      0.421391   -1.777212    3.344160
H      2.559873   -1.993051    4.563598
H      4.740510   -1.364210    4.618126
H      4.456253    0.625027    1.714955
H      1.305783    1.802548   -1.262886
H     -0.239612    0.314517   -2.836595
H     -2.261199    0.737240   -4.200895
H     -4.490606    1.687802   -0.670949
H     -2.489773    1.281654    0.728779
