45

C      1.227604   -6.831661   -1.656992
C      2.126937   -5.962651   -2.536313
C      2.001431   -4.652345   -2.225345
C      1.064975   -4.500353   -1.167120
C      0.581257   -5.786319   -0.813835
C     -0.345226   -5.745261    0.189443
S     -0.616191   -4.116528    0.686031
C      0.531929   -3.464266   -0.447775
C      0.791773   -2.052842   -0.519772
C      1.848343   -1.355570   -1.073865
C      1.617792    0.033898   -0.878187
C      2.294967    1.205290   -1.243621
C      1.762251    2.463207   -0.887179
C      2.380730    3.611601   -1.343525
N      1.921245    4.856328   -1.136047
C      0.842367    5.009111   -0.364314
C      0.408541    6.312050   -0.232534
C     -0.683241    6.649258    0.555210
C     -1.320029    5.677557    1.315946
C     -2.363803    6.071248    2.171788
C     -2.970506    5.161387    3.028592
C     -2.512770    3.856612    3.057727
C     -1.483803    3.459254    2.195140
C     -0.884906    4.327501    1.244153
C      0.156719    3.950153    0.282343
C      0.591185    2.609843   -0.107171
C     -0.108677    1.406200    0.179384
C      0.422455    0.159825   -0.189873
N     -0.064733   -1.111110    0.004659
H      1.822364   -7.527373   -1.058741
H      0.497164   -7.374226   -2.263441
H      2.768920   -6.359936   -3.308339
H      2.523140   -3.843487   -2.714845
H     -0.879863   -6.560406    0.656464
H      2.705943   -1.788326   -1.569221
H      3.211261    1.130764   -1.823233
H      3.280973    3.568358   -1.951715
H      0.933416    7.098796   -0.771207
H     -0.989028    7.691948    0.603449
H     -2.699391    7.106578    2.193218
H     -3.767489    5.481112    3.693808
H     -2.936176    3.144758    3.761629
H     -1.109983    2.451090    2.338125
H     -1.092669    1.422159    0.629934
H     -0.929647   -1.333372    0.476825
