36

C     -2.952930    2.708454   -5.598529
O     -2.019893    1.678373   -5.295307
C     -1.749962    1.450403   -3.975984
C     -2.293907    2.138182   -2.893327
C     -1.925571    1.797703   -1.584677
C     -1.000211    0.774602   -1.342136
C     -0.659925    0.433167    0.047875
C      0.582736    0.097521    0.433826
C      0.949587   -0.245512    1.812238
C      1.813963   -1.312568    2.163619
C      2.108604   -1.503097    3.535133
C      2.957979   -2.547129    3.932957
C      3.517508   -3.409499    2.992032
C      3.233231   -3.241965    1.643104
C      2.390540   -2.208064    1.231274
C      1.549859   -0.649501    4.489053
C      0.716771    0.376825    4.079860
N      0.450105    0.546038    2.780145
C     -0.472355    0.075798   -2.433180
C     -0.841702    0.418122   -3.737370
H     -3.938857    2.483324   -5.178680
H     -3.056682    2.756169   -6.686779
H     -2.589697    3.682548   -5.254764
H     -3.009482    2.942514   -3.032256
H     -2.373676    2.352639   -0.763702
H     -1.501192    0.457606    0.737026
H      1.395552    0.059757   -0.290021
H      3.197047   -2.707114    4.984079
H      4.174076   -4.216206    3.313419
H      3.666455   -3.920115    0.909715
H      2.188547   -2.123712    0.164489
H      1.763203   -0.778289    5.549067
H      0.259224    1.077948    4.770195
H     -0.140664    1.327878    2.499729
H      0.219114   -0.751451   -2.296717
H     -0.423561   -0.130791   -4.578946
