38

C     -3.885414    0.022669   -2.390613
C     -2.455911    0.330893   -2.059698
C     -1.543232    0.645323   -3.063544
C     -0.223595    0.972654   -2.735351
C      0.224165    1.003816   -1.420949
N      1.498107    1.337096   -1.187522
C      1.913289    1.393216    0.081424
N      3.218408    1.756784    0.382091
C      4.219667    1.335814   -0.583082
C      4.445432    2.388138   -1.673886
O      5.368333    1.905552   -2.650374
N      1.146309    1.107273    1.131295
C     -0.135243    0.750661    0.889091
C     -0.895743    0.430271    2.108146
C     -1.366517   -0.870895    2.355212
C     -2.088045   -1.164611    3.515084
C     -2.342406   -0.163496    4.449851
C     -1.870786    1.128753    4.230266
C     -1.149402    1.421522    3.070399
C     -0.678647    0.692677   -0.402095
C     -2.023867    0.370681   -0.730700
H     -3.967235   -0.437718   -3.380846
H     -4.309036   -0.683332   -1.668579
H     -4.479135    0.941821   -2.378081
H     -1.846636    0.646021   -4.108276
H      0.473637    1.220100   -3.533145
H      3.373521    1.434686    1.332444
H      5.170273    1.189028   -0.054845
H      3.988509    0.356526   -1.023342
H      4.863865    3.300934   -1.236883
H      3.520487    2.665776   -2.187988
H      4.895265    1.232847   -3.170847
H     -1.163337   -1.668956    1.643706
H     -2.444144   -2.176289    3.691657
H     -2.899734   -0.392161    5.354622
H     -2.057381    1.909207    4.963412
H     -0.776278    2.432665    2.915995
H     -2.740166    0.158887    0.061472
