50

C     -1.063240   -1.203139    4.089340
C     -2.230460   -0.262986    3.990997
C     -2.311473    0.224674    2.742870
C     -3.266602    1.156496    2.153288
C     -3.086976    1.448930    0.840988
C     -2.009152    0.870219    0.029623
C     -1.098408    0.003851    0.532260
C     -0.052292   -0.516771   -0.360133
C      1.214060    0.074553   -0.382269
C      2.212123   -0.427098   -1.224122
C      1.965225   -1.526456   -2.059741
C      0.693180   -2.118818   -2.023033
C     -0.306880   -1.618927   -1.181862
C      3.026822   -2.040692   -2.938818
S      2.668748   -2.402164   -4.593725
C      4.275719   -2.885529   -4.937597
C      5.076876   -2.770266   -3.832865
N      6.400916   -3.090048   -3.845747
C      6.955972   -2.884036   -2.620288
C      6.272293   -2.407749   -1.495308
N      4.952039   -2.079719   -1.459398
C      4.363356   -2.277870   -2.676967
C     -1.233723   -0.346530    1.936508
C     -0.500111   -1.172609    2.697670
C     -4.329752    1.802508    2.855084
S     -5.998779    1.488283    2.459529
C     -6.599578    2.549275    3.683241
C     -5.564667    3.115664    4.372459
C     -5.390236    4.073711    5.500842
C     -3.862063    4.121728    5.593103
C     -3.288332    3.320840    4.666325
C     -4.301967    2.686852    3.900477
H     -0.330478   -0.845926    4.818776
H     -1.391752   -2.211173    4.358784
H     -2.896469   -0.032139    4.808408
H     -3.739991    2.149255    0.325714
H     -1.973466    1.181337   -1.011536
H      1.433115    0.926280    0.257646
H      3.189708    0.051075   -1.219402
H      0.466461   -2.985902   -2.639285
H     -1.282680   -2.099477   -1.166614
H      4.554465   -3.225047   -5.924415
H      8.014345   -3.120664   -2.554255
H      6.799309   -2.274792   -0.554481
H      0.358925   -1.740497    2.373914
H     -7.663491    2.684348    3.817274
H     -5.823953    3.692633    6.429464
H     -5.796583    5.060762    5.263607
H     -3.326865    4.725156    6.310868
H     -2.226933    3.177127    4.518929
