39

Si    -1.351663   -0.344063    0.548570
C     -0.464552   -1.739620   -0.308586
C     -1.165140   -2.168092   -1.375088
C     -2.424288   -1.473848   -1.624019
C     -2.757682   -0.479518   -0.766749
C     -3.942612    0.395435   -0.748600
C     -4.200152    1.411029    0.194316
N     -5.275375    2.265665    0.279844
C     -6.284300    2.198624   -0.628488
C     -6.190564    1.234875   -1.647524
N     -7.091052    1.030674   -2.622416
S     -6.503250   -0.209468   -3.548410
N     -5.088990   -0.538786   -2.756625
C     -4.992398    0.308331   -1.713406
C      0.777634   -2.253717    0.131405
C      1.556651   -3.278111   -0.391639
C      2.712064   -3.407878    0.414100
C      2.619252   -2.461047    1.415117
O      1.447772   -1.770006    1.234941
C      3.526907   -2.177265    2.487010
S      5.022987   -3.015618    2.767359
C      5.423805   -2.071861    4.172145
C      4.427546   -1.183975    4.360570
C      4.030734   -0.135593    5.226259
C      2.791292    0.345846    4.751454
N      2.372514   -0.346493    3.617986
C      3.395877   -1.236128    3.449946
H     -1.873729   -0.674767    1.899234
H     -0.677266    0.975684    0.450256
H     -0.860816   -2.969858   -2.037094
H     -3.017217   -1.789944   -2.473691
H     -3.493038    1.606561    0.999793
H     -7.110093    2.889429   -0.523625
H      1.316947   -3.870633   -1.263823
H      3.519384   -4.113962    0.276646
H      6.333277   -2.241212    4.729832
H      4.557671    0.243099    6.092011
H      2.166727    1.140063    5.139973
H      1.544609   -0.254125    3.039979
