26

C     -1.821548   -1.387724    2.445198
C     -1.697820   -0.073076    1.993382
C     -1.043950    0.214018    0.781477
C     -0.894010    1.571908    0.334337
C      0.236607    2.409920    0.268802
N     -0.061910    3.615220   -0.223556
O     -1.426400    3.580241   -0.473436
C     -1.915405    2.360059   -0.133497
C     -0.514809   -0.844072    0.008140
C     -0.661144   -2.136475    0.507408
C     -1.298610   -2.452168    1.707275
O     -0.101141   -3.047097   -0.329473
C      0.404148   -2.363737   -1.390268
N      1.026985   -2.974774   -2.414927
C      1.441706   -2.119513   -3.372547
C      1.268772   -0.742620   -3.356759
C      0.617755   -0.152775   -2.272545
C      0.169601   -0.996370   -1.239418
H     -2.327426   -1.588506    3.387745
H     -2.106250    0.734284    2.599434
H      1.258669    2.197727    0.550448
H     -2.975216    2.221890   -0.289459
H     -1.382168   -3.479458    2.043846
H      1.947461   -2.594975   -4.210586
H      1.633410   -0.134785   -4.178905
H      0.463266    0.920949   -2.245952
