47

C     -4.675619    4.182920   -1.339156
C     -4.807801    4.444386   -2.813838
C     -3.922341    3.687532   -3.474481
C     -3.675128    3.578719   -4.889573
C     -2.716252    2.723230   -5.295655
C     -1.930918    1.922979   -4.347745
C     -2.117735    1.972051   -3.003454
C     -1.274513    1.173155   -2.165161
C     -0.347391    1.612000   -1.240247
C      0.291540    0.522669   -0.576738
S      1.527998    0.413520    0.657813
C      1.480148   -1.322707    0.651874
C      0.531980   -1.713615   -0.279742
C      0.276344   -3.100277   -0.497130
C     -0.582295   -3.755056   -1.330927
N     -0.374600   -5.096184   -1.089150
C      0.597949   -5.260205   -0.121092
C      1.028365   -4.009485    0.272646
C      2.015987   -3.735143    1.245238
C      2.740412   -4.754107    1.990280
C      3.722767   -4.470933    2.957636
C      3.896495   -3.102176    3.094621
C      4.785803   -2.521780    3.961551
N      4.662223   -1.162446    3.803398
C      3.706872   -0.878046    2.848457
C      3.201239   -2.068615    2.378238
C      2.211307   -2.298017    1.402108
C     -0.153526   -0.705852   -0.986969
S     -1.384818   -0.545597   -2.211223
C     -3.149766    2.888998   -2.526819
C     -3.574695    3.159913   -1.282705
H     -5.605918    3.782118   -0.926071
H     -4.394396    5.093229   -0.801622
H     -5.513719    5.131725   -3.253098
H     -4.253294    4.169341   -5.589624
H     -2.493316    2.603277   -6.351465
H     -1.169609    1.283848   -4.788490
H     -0.132673    2.656202   -1.049022
H     -1.312065   -3.439496   -2.061583
H     -0.863693   -5.850968   -1.552804
H      0.880651   -6.257414    0.185893
H      2.518322   -5.802287    1.796961
H      4.256105   -5.233425    3.506377
H      5.489525   -2.936478    4.670197
H      5.193353   -0.467527    4.311680
H      3.499622    0.154911    2.615496
H     -3.202772    2.717621   -0.371308
