41

Si    -3.030224    5.300250    2.326648
C     -3.799543    4.978928    0.651720
C     -3.202356    3.939546    0.038181
C     -3.577025    3.443005   -1.282450
C     -2.925486    2.394751   -1.824475
C     -1.870968    1.796971   -1.070278
O     -1.112592    0.732419   -1.470305
C     -0.213470    0.458478   -0.477367
C     -0.377678    1.345334    0.583886
C      0.466536    1.202204    1.685630
N      1.412829    0.225945    1.709013
C      1.541747   -0.615628    0.660046
C      2.500244   -1.622825    0.656356
C      2.660750   -2.518346   -0.423567
C      1.786307   -2.325495   -1.498227
N      0.829480   -1.366598   -1.563721
C      0.744976   -0.552682   -0.486739
C      3.686001   -3.597498   -0.430240
S      4.752041   -3.798431    0.932778
C      5.577697   -5.124558    0.247472
C      5.078733   -5.431784   -0.987168
N      5.570981   -6.454044   -1.740116
C      4.904244   -6.548928   -2.920480
C      3.854590   -5.715166   -3.316742
N      3.347783   -4.689169   -2.580973
C      3.993210   -4.560566   -1.383610
C     -1.439602    2.197130    0.195447
C     -2.097659    3.305398    0.816527
C     -1.861259    3.866072    2.017168
H     -3.966570    5.027078    3.442571
H     -2.318276    6.598901    2.383984
H     -4.613006    5.581759    0.280331
H     -4.385171    3.929964   -1.817662
H     -3.174639    1.998122   -2.801297
H      0.422551    1.838177    2.561505
H      3.129231   -1.686755    1.540351
H      1.811340   -2.949552   -2.385796
H      6.383354   -5.614195    0.775093
H      5.245017   -7.346282   -3.575046
H      3.376880   -5.863246   -4.281569
H     -1.126175    3.590954    2.753093
