40

C      0.266825   -2.819958    2.731807
S      0.374536   -4.530800    2.509014
C      0.251085   -4.401018    0.785417
C      0.132623   -3.089491    0.413973
C      0.142277   -2.203432    1.517236
C      0.031219   -0.790551    1.367335
C      0.016694    0.259641    2.283142
C     -0.116923    1.428950    1.529146
N     -0.177853    1.041404    0.190350
C     -0.087341   -0.311692    0.094816
C     -0.098559   -1.265744   -1.105626
N     -0.204101   -1.024835   -2.438907
C     -0.163816   -2.226647   -3.129482
C     -0.238660   -2.457963   -4.509459
C     -0.173526   -3.779911   -4.954606
C     -0.038593   -4.831494   -4.053803
C      0.035400   -4.590309   -2.675849
C     -0.027156   -3.267678   -2.191001
C      0.009568   -2.623638   -0.940531
C     -0.189655    2.832537    1.947814
C     -0.128333    3.230245    3.303503
C     -0.196289    4.577782    3.733668
C     -0.332212    5.658494    2.849332
C     -0.400018    5.333674    1.474587
N     -0.529576    6.218304    0.474464
S     -0.559915    5.341657   -0.930942
N     -0.410320    3.796750   -0.341840
C     -0.328485    3.896699    1.001775
H      0.302311   -2.396420    3.725079
H      0.276005   -5.299473    0.190612
H      0.092361    0.198684    3.359564
H     -0.275444    1.693440   -0.578455
H     -0.297624   -0.117428   -2.870352
H     -0.343933   -1.640988   -5.216093
H     -0.229122   -3.989333   -6.020413
H      0.010239   -5.853793   -4.421201
H      0.140331   -5.432043   -2.001174
H     -0.022628    2.468128    4.075848
H     -0.140213    4.784064    4.803228
H     -0.382896    6.684676    3.193057
