46

C     -0.765077    3.584502   -2.513105
C     -1.675026    3.920823   -1.330810
C     -2.741268    2.831768   -1.120714
N     -2.169151    1.565680   -0.719353
C     -2.934384    0.425050   -0.632627
O     -4.102954    0.368335   -1.000041
C     -2.277727   -0.765722   -0.019638
C     -3.089423   -1.771951    0.514360
C     -2.516910   -2.906451    1.099624
C     -1.122961   -3.065558    1.158943
C     -0.521045   -4.260391    1.773331
C     -0.892359   -5.551293    1.361491
C     -0.320798   -6.686160    1.943407
C      0.632269   -6.549002    2.949236
C      1.014385   -5.278841    3.373016
C      0.442671   -4.144939    2.789220
C     -0.319734   -2.053642    0.606872
C     -0.887172   -0.916404    0.019316
C     -0.904147    4.252557   -0.027511
N     -0.134894    3.122631    0.543308
C      1.282052    3.200131    0.165468
C     -0.232917    3.129612    2.009445
H     -0.250630    2.627896   -2.381960
H     -0.011631    4.365687   -2.657596
H     -1.350825    3.515853   -3.436447
H     -2.215888    4.837007   -1.606442
H     -3.446381    3.136133   -0.338191
H     -3.321630    2.676664   -2.037788
H     -1.335621    1.643684   -0.139124
H     -4.172913   -1.674409    0.480879
H     -3.173242   -3.666356    1.519895
H     -1.627192   -5.681566    0.569304
H     -0.619761   -7.675810    1.607935
H      1.076367   -7.431282    3.402522
H      1.755379   -5.168217    4.160329
H      0.747210   -3.162391    3.143819
H      0.764137   -2.155431    0.612897
H     -0.228049   -0.174533   -0.422735
H     -0.258642    5.126205   -0.189724
H     -1.661962    4.586802    0.695274
H      1.763987    4.106047    0.551479
H      1.825302    2.331306    0.554406
H      1.412293    3.182376   -0.919417
H      0.152803    4.058105    2.445863
H      0.322850    2.286932    2.435954
H     -1.275321    3.003298    2.323040
