47

Si     1.946365    1.494485    3.095997
C      1.709015    2.981044    2.003927
C      1.021583    2.677749    0.880520
C      0.647547    3.656432   -0.160701
C      0.799806    5.043764    0.036120
C      0.309126    5.960041   -0.889699
C     -0.375806    5.500849   -2.001750
C     -0.525931    4.126365   -2.206846
C      0.037132    3.165792   -1.338764
C     -0.106695    1.700944   -1.563399
C     -0.349312    1.071192   -2.804078
C     -0.158268    1.651837   -4.040070
S     -0.578446    0.609856   -5.334324
C     -0.920369   -0.677245   -4.259256
C     -0.713036   -0.318597   -2.945172
C     -0.847825   -1.217253   -1.856277
C     -1.274869   -2.569645   -1.953678
C     -1.346422   -3.390274   -0.827574
C     -0.978620   -2.767689    0.353006
N     -0.559390   -1.476096    0.470372
C     -0.472840   -0.659506   -0.603387
C     -0.034836    0.726521   -0.491473
C      0.628648    1.248651    0.759995
C      1.048562    0.505485    1.808895
C     -1.798919   -4.780183   -0.923779
N     -2.571345   -5.130564   -2.014464
C     -3.044079   -6.403096   -2.194756
C     -2.835358   -7.500070   -1.370599
C     -2.040607   -7.209629   -0.247868
N     -1.686270   -8.097614    0.694294
S     -0.745785   -7.278998    1.786612
N     -0.750848   -5.762063    1.119043
C     -1.497376   -5.822638    0.000382
H      1.201446    1.610544    4.373392
H      3.375092    1.117897    3.227338
H      2.100852    3.934670    2.313954
H      1.274593    5.434196    0.931106
H      0.425416    7.026435   -0.717504
H     -0.812996    6.206071   -2.703866
H     -1.138543    3.825405   -3.052267
H      0.222567    2.631373   -4.289119
H     -1.222657   -1.628462   -4.673266
H     -1.556043   -2.982318   -2.919513
H     -1.015227   -3.281591    1.310070
H      0.955306   -0.556991    1.953792
H     -3.644429   -6.520016   -3.097289
H     -3.237871   -8.482104   -1.572453
