39

O     -2.677391   -1.480963   -0.399860
C     -2.256356   -0.340725   -0.237437
N     -0.919877    0.026621   -0.231783
C      0.107968   -0.888837   -0.197011
N      0.004975   -2.191563   -0.080817
C      1.280524   -2.679525   -0.012097
C      1.719365   -4.004166    0.129156
C      3.094292   -4.258073    0.180348
C      4.013872   -3.212551    0.091219
C      3.593698   -1.884412   -0.052730
C      2.212212   -1.651384   -0.100941
N      1.440832   -0.515601   -0.240062
C      1.962817    0.820094   -0.500527
C      1.577301    1.839786    0.546312
C      1.633531    1.549064    1.917887
C      1.271471    2.511404    2.861589
C      0.868332    3.779397    2.448985
C      0.831962    4.090268    1.091892
C      1.189862    3.129134    0.145467
C     -3.156350    0.796066   -0.061963
C     -2.969417    2.104053    0.360273
C     -4.238232    2.735395    0.329186
C     -5.126856    1.782683   -0.103318
O     -4.487834    0.610940   -0.338732
H     -0.692653    1.005178   -0.192183
H      0.994667   -4.808231    0.197411
H      3.444888   -5.281449    0.290440
H      5.078548   -3.433922    0.133713
H      4.321317   -1.082992   -0.119093
H      3.053501    0.777179   -0.571422
H      1.576706    1.103563   -1.487609
H      1.951918    0.568445    2.269313
H      1.309388    2.271868    3.921731
H      0.594341    4.528382    3.188032
H      0.533354    5.086062    0.772283
H      1.166886    3.399849   -0.909332
H     -2.039657    2.554641    0.678136
H     -4.477190    3.754058    0.599759
H     -6.193318    1.774480   -0.281251
