47

C     -3.942682    0.135701    0.365325
N     -3.830640    1.041996   -0.659043
C     -2.517711    1.133180   -1.069593
C     -1.765236    0.273353   -0.302120
C     -2.682107   -0.351297    0.616364
C     -2.346324   -1.307481    1.577447
C     -0.957672   -1.586286    1.530973
C     -0.013773   -0.979314    0.628202
C      1.318043   -1.357793    0.706917
C      2.282642   -0.805687   -0.140883
C      1.951408    0.164468   -1.118811
C      0.601658    0.564931   -1.216080
S      0.411826    1.754049   -2.466616
C      2.066026    1.764719   -2.897453
C      2.697894    2.548954   -3.914849
C      4.078181    2.469629   -4.177582
C      4.698015    1.560483   -3.340477
C      6.038145    1.259901   -3.351214
O      6.315383    0.319251   -2.392990
C      5.134740    0.014081   -1.760551
C      4.146625    0.760532   -2.326278
C      2.732076    0.865275   -2.082726
C     -0.380967    0.003732   -0.354331
C     -3.272180   -1.921475    2.500198
C     -3.978506   -1.238978    3.528291
C     -4.887196   -1.868421    4.455403
C     -5.191080   -3.249208    4.459279
C     -4.492656   -3.894594    3.448806
C     -4.535051   -5.227489    3.140132
O     -3.714715   -5.474172    2.072421
C     -3.149290   -4.283303    1.701861
C     -3.591699   -3.281795    2.528418
H     -4.906335   -0.077097    0.808440
H     -4.599448    1.561908   -1.062064
H     -2.277830    1.807098   -1.877057
H     -0.579038   -2.317536    2.249596
H      1.641160   -2.098683    1.436636
H      3.305302   -1.147635   -0.024574
H      2.089150    3.231314   -4.506859
H      4.566530    3.056792   -4.943308
H      6.888305    1.592443   -3.930136
H      5.218236   -0.722152   -0.977085
H     -3.821910   -0.163498    3.633340
H     -5.366848   -1.233348    5.201646
H     -5.873702   -3.711193    5.157527
H     -5.055046   -6.088078    3.535802
H     -2.480474   -4.331418    0.853996
