43

Si    -3.341390   -1.098795   -4.784644
C     -4.323267    0.492402   -4.677393
C     -3.827067    1.292541   -3.715880
C     -4.347939    2.597468   -3.363149
C     -3.750004    3.287826   -2.374301
C     -2.593451    2.763770   -1.649437
C     -2.046009    1.554408   -1.918335
C     -0.877959    1.135028   -1.130245
C      0.411235    1.226455   -1.656448
N      1.543343    0.854437   -1.007330
C      1.396365    0.355445    0.244448
C      2.605434   -0.030613    0.907259
S      4.262568    0.039550    0.357860
C      4.834435   -0.632697    1.861544
C      6.068085   -0.999861    2.472342
C      5.733807   -1.481552    3.719394
N      4.374999   -1.422518    3.886136
C      3.822635   -0.900350    2.743119
C      2.588833   -0.555666    2.187050
C      1.355457   -0.723560    2.874688
C      1.041145   -1.203865    4.110958
N     -0.335451   -1.109383    4.192492
C     -0.851261   -0.578788    3.022491
C      0.202729   -0.326377    2.172183
C      0.124602    0.218098    0.868916
C     -1.024751    0.617854    0.157567
C     -2.654728    0.753065   -2.984620
C     -2.259358   -0.469831   -3.392829
H     -2.606799   -1.220508   -6.066789
H     -4.144474   -2.281154   -4.389255
H     -5.163511    0.684473   -5.324799
H     -5.203738    2.996127   -3.895609
H     -4.115813    4.269009   -2.087408
H     -2.184367    3.408157   -0.874753
H      0.575984    1.617505   -2.658083
H      7.059827   -0.918906    2.049234
H      6.361105   -1.866908    4.512896
H      3.837229   -1.704562    4.694670
H      1.612673   -1.597946    4.937046
H     -0.889710   -1.388062    4.992300
H     -1.918774   -0.437648    2.919976
H     -2.010951    0.520358    0.600443
H     -1.441184   -1.060241   -3.011598
