50

C     -3.802425    0.356377    0.452684
C     -3.767431    0.350054    1.954135
C     -2.494994    0.425099    2.375427
C     -1.951557    0.454384    3.730982
C     -0.599185    0.501225    3.823723
C      0.290626    0.551422    2.658751
C     -0.166664    0.532138    1.385001
C      0.803687    0.580326    0.297050
C      1.552677    1.720319   -0.084707
C      2.498466    1.734860   -1.170700
C      2.790060    0.612624   -1.988859
C      3.724491    0.609797   -3.092915
S      5.367975    1.149754   -2.868103
C      5.818878    0.847909   -4.518364
C      4.734120    0.371975   -5.160961
N      4.650898    0.013838   -6.474415
C      3.317200   -0.382311   -6.562104
C      2.653791   -0.252697   -5.322698
C      3.601388    0.244285   -4.389441
C      2.043013   -0.502423   -1.595687
C      2.061641   -1.776482   -2.104083
O      1.182266   -2.565284   -1.414409
C      0.605891   -1.791416   -0.445791
C      1.104983   -0.516167   -0.514858
C     -1.609139    0.471272    1.212266
C     -2.347394    0.440247    0.092137
C     -2.740052    0.400836    4.940328
Si    -3.698213    1.913711    5.555584
C     -4.267795    0.848557    7.003837
C     -3.762696   -0.395986    6.923560
C     -2.908087   -0.646918    5.773079
H     -4.251420   -0.562988    0.065629
H     -4.352406    1.223518    0.075527
H     -4.645409    0.289242    2.578296
H     -0.107629    0.508274    4.793800
H      1.355562    0.593330    2.874637
H      1.404225    2.649289    0.467898
H      3.008628    2.677347   -1.375265
H      6.815271    1.036821   -4.891783
H      5.379521    0.041197   -7.177261
H      2.935224   -0.728497   -7.514397
H      1.614033   -0.492157   -5.142201
H      2.602565   -2.273737   -2.897000
H     -0.111360   -2.294992    0.187434
H     -1.972856    0.461364   -0.919937
H     -2.818900    3.022168    6.006062
H     -4.837674    2.286933    4.679069
H     -4.918413    1.239866    7.769570
H     -3.961873   -1.176551    7.647778
H     -2.455415   -1.619235    5.621073
