27

N     -2.674275    4.671678   -0.348528
C     -3.032009    3.583643   -0.158290
C     -3.544005    2.265006    0.083286
C     -4.940285    2.193770    0.288683
C     -5.576130    0.980080    0.534173
C     -4.824596   -0.182297    0.578081
C     -3.442838   -0.122843    0.376237
C     -2.758307    1.092815    0.123650
C     -1.283908    0.975733   -0.068498
N     -0.657903   -0.188416   -0.006671
C      0.700470   -0.045841   -0.215934
C      1.652571   -1.072757   -0.217602
C      2.998285   -0.783842   -0.443913
S      4.357042   -1.839623   -0.499020
C      5.372530   -0.497721   -0.814418
N      4.785981    0.675568   -0.882958
C      3.426068    0.524708   -0.672420
C      2.470499    1.548999   -0.669927
C      1.125914    1.256881   -0.443365
S     -0.231881    2.298211   -0.386541
H     -5.544413    3.101250    0.256846
H     -6.651630    0.944989    0.689834
H     -5.304326   -1.139588    0.768649
H     -2.886715   -1.060945    0.418763
H      1.328251   -2.094234   -0.040577
H      6.439831   -0.616716   -0.949106
H      2.793044    2.571424   -0.846824
