31

C      1.817054    2.602710   -1.367090
C      1.367046    3.035389   -2.616290
C      0.166101    2.544657   -3.088978
N     -0.594912    1.669773   -2.407965
C     -0.131385    1.266095   -1.194256
C     -0.937454    0.355686   -0.501201
O     -2.126369   -0.139282   -0.953258
C     -2.602585   -0.984442   -0.009483
C     -3.794374   -1.684092   -0.108784
C     -4.061666   -2.482912    0.985094
N     -3.261432   -2.598224    2.069144
C     -2.100861   -1.892204    2.122884
C     -1.730893   -1.051141    1.068933
C     -0.633403   -0.172012    0.752061
C      0.586118    0.247017    1.369913
C      0.953251   -0.250805    2.640878
C      2.137633    0.146926    3.256991
C      2.975945    1.046398    2.618589
C      2.631395    1.550304    1.361956
C      1.438711    1.175239    0.697257
C      1.069934    1.682904   -0.592641
H      2.763313    2.998913   -1.011227
H      1.945015    3.740280   -3.203840
H     -0.226978    2.850165   -4.054187
H     -4.447180   -1.605949   -0.965428
H     -4.969162   -3.080606    1.022394
H     -1.516856   -2.038413    3.021939
H      0.328681   -0.955338    3.176351
H      2.402739   -0.247147    4.234909
H      3.901735    1.360599    3.094409
H      3.326927    2.252188    0.909449
