32

C      2.805406   -1.388363   -0.554414
N      2.500703   -0.225188    0.248990
N      3.533271    0.468093    0.781289
C      2.959738    1.450711    1.491221
C      1.524365    1.344118    1.386801
C      0.587478    2.191880    1.978995
C      1.211496    3.206479    2.733629
C      2.627708    3.341974    2.866295
C      3.554151    2.472165    2.251035
C      1.255194    0.261910    0.580674
C      0.007475   -0.305159    0.159820
C     -0.985204   -0.806301    0.974574
C     -2.105165   -1.286695    0.231981
C     -1.944754   -1.126305   -1.133397
C     -2.832562   -1.479412   -2.235199
N     -4.143122   -1.735050   -1.867036
C     -5.152141   -1.981038   -2.865980
O     -2.481583   -1.541459   -3.411574
S     -0.429499   -0.401153   -1.488530
H      2.084636   -2.179407   -0.335037
H      3.809788   -1.743145   -0.306606
H      2.762084   -1.097241   -1.606389
H     -0.485779    2.110004    1.879734
H      0.578794    3.934200    3.243302
H      3.012909    4.162815    3.471440
H      4.625194    2.578442    2.348953
H     -0.908858   -0.839988    2.055443
H     -2.973027   -1.741308    0.692855
H     -4.448363   -1.453762   -0.947237
H     -6.034456   -2.396477   -2.373802
H     -4.779339   -2.683250   -3.616539
H     -5.407851   -1.033713   -3.348033
