44

C     -2.058285   -1.873064   -0.855969
O     -1.700076   -0.631832   -0.258797
C     -2.745049    0.130441    0.211768
C     -3.975194   -0.396890    0.617577
C     -4.982401    0.453166    1.075666
C     -4.761978    1.826920    1.133708
C     -3.530288    2.359399    0.744555
C     -2.511236    1.519710    0.291485
N     -1.240511    1.981436   -0.112146
C     -0.777306    3.276284   -0.198802
O     -1.400607    4.289488    0.113272
C      0.668256    3.381030   -0.706545
O      0.939595    2.683601   -1.917666
C      1.491033    1.432449   -1.751396
C      2.064152    0.858684   -2.858843
C      2.584718   -0.403465   -2.678617
C      3.238078   -1.122714   -3.819601
N      2.528310   -1.042974   -1.491536
C      1.920886   -0.406461   -0.471206
C      1.893471   -1.074731    0.886091
C      3.235038   -0.875825    1.592544
C      1.546616   -2.560753    0.792403
N      1.383722    0.824212   -0.559169
H     -2.298382   -2.614632   -0.088234
H     -2.883188   -1.758700   -1.567144
H     -1.190690   -2.237702   -1.413919
H     -4.172410   -1.463385    0.598090
H     -5.939041    0.043623    1.389649
H     -5.546407    2.490695    1.487433
H     -3.394895    3.433894    0.811886
H     -0.586439    1.240643   -0.366310
H      1.364831    3.138811    0.106910
H      0.838751    4.441358   -0.933499
H      2.104006    1.375302   -3.807916
H      4.056713   -0.521658   -4.228752
H      3.653057   -2.081239   -3.489912
H      2.506017   -1.320116   -4.609279
H      1.113923   -0.588331    1.487345
H      4.052895   -1.359758    1.045172
H      3.480257    0.188991    1.682320
H      3.208126   -1.299108    2.602243
H      1.467630   -3.000720    1.792068
H      2.309390   -3.122434    0.240466
H      0.588695   -2.710891    0.282857
