30

C      0.238915    0.229777   -3.098309
B     -0.076605    0.316812   -1.547648
N     -0.458936    1.610157   -0.845807
C     -0.351128    1.707414    0.587993
C      0.100002    0.626762    1.333085
N      0.459372   -0.582989    0.694126
C      0.906622   -1.681322    1.337253
B      1.035919   -1.609456    2.898521
C      1.123813   -2.949220    3.699235
N      0.644316   -0.299430    3.565818
C      1.159206   -2.667607    0.407123
C      0.853736   -2.145679   -0.838402
C      0.419489   -0.839043   -0.613666
C      0.192355    0.757244    2.727861
C     -0.162528    1.948739    3.347621
C     -0.611073    3.024923    2.612872
C     -0.692674    2.872099    1.247879
H      1.320620    0.484138   -3.239363
H     -0.020147   -0.739495   -3.532223
H     -0.319795    1.078258   -3.577407
H     -0.789512    2.397404   -1.408999
H      1.483001   -3.760768    3.056894
H      0.067112   -3.230826    3.980887
H      1.661146   -2.866295    4.662841
H      0.725983   -0.241320    4.597109
H      1.525836   -3.646013    0.658483
H      0.927158   -2.626004   -1.793976
H     -0.082642    2.027750    4.434541
H     -0.874920    3.927817    3.133845
H     -1.045256    3.707173    0.631833
