28

C      2.085159    0.921181    0.648510
C      0.855065    1.607499    0.134745
C     -0.135668    0.972084   -0.598686
C     -0.129051   -0.407654   -0.966098
C     -0.102481   -1.570766   -1.263905
C     -0.054624   -2.952168   -1.608340
C     -1.069624   -3.580039   -2.352826
C     -1.027183   -4.951468   -2.697636
C      0.029206   -5.804206   -2.327958
C      1.078050   -5.219290   -1.575822
N      2.170084   -5.857399   -1.128149
S      3.072168   -4.726873   -0.312540
N      2.121710   -3.377970   -0.488670
C      1.044014   -3.754953   -1.201239
S     -1.404645    2.022898   -1.036468
C     -0.659078    3.342608   -0.258179
C      0.543722    3.007928    0.334686
C      1.399088    3.979417    1.081632
H      2.666585    0.508886   -0.182893
H      1.811230    0.103307    1.323284
H      2.735756    1.604149    1.201893
H     -1.926647   -2.990132   -2.680189
H     -1.852344   -5.367087   -3.277334
H      0.046638   -6.852914   -2.600145
H     -1.140986    4.310838   -0.271350
H      0.951075    4.978471    1.095886
H      2.384671    4.059182    0.611887
H      1.529046    3.653971    2.118736
