27

C     -1.454635    4.608253   -1.221898
C     -0.986744    3.220646   -0.899977
C     -0.035469    2.586619   -1.702944
C      0.376198    1.277919   -1.420745
C     -0.152777    0.560054   -0.333199
C      0.274148   -0.819932   -0.015678
C      1.562850   -1.292053   -0.265503
C      1.888534   -2.608747    0.061425
N     -0.667295   -1.613359    0.557084
C     -0.327117   -2.886563    0.861819
C      0.923520   -3.439131    0.625110
C      1.237747   -4.845242    1.022714
C     -1.127540    1.207370    0.447220
C     -1.541609    2.515054    0.169815
H     -2.306338    4.566544   -1.907757
H     -1.757315    5.139109   -0.313147
H     -0.653598    5.192378   -1.687067
H      0.390468    3.103129   -2.560248
H      1.105574    0.818432   -2.083598
H      2.323635   -0.647004   -0.691683
H      2.895309   -2.974079   -0.123907
H     -1.123191   -3.467746    1.319924
H      0.349530   -5.481141    0.945415
H      2.002443   -5.274954    0.367095
H      1.602374   -4.871470    2.054184
H     -1.576862    0.683580    1.290053
H     -2.302691    2.972437    0.797727
