41

C      0.985392    0.659604   -0.192775
C     -0.160619    0.010880    0.565395
C      0.375338   -0.814583    1.486508
C      1.814751   -0.783317    1.421520
C      2.204772    0.073202    0.466019
C      3.555209    0.401021    0.045489
C      3.948136    0.608912   -1.303387
C      5.285958    0.939571   -1.722787
C      6.374398    1.111561   -0.840476
C      5.968645    0.924959    0.473442
C      6.771455    1.048434    1.577414
N      5.973992    0.816900    2.676566
C      4.678273    0.553346    2.281154
C      4.645978    0.590462    0.906701
C     -1.565957    0.197702    0.380720
S     -2.766028   -0.652016    1.309161
C     -4.100974    0.086468    0.518848
C     -5.468281   -0.217687    0.825745
C     -6.515674   -0.456667   -0.047172
N     -7.744493   -0.724531    0.529659
C     -7.619641   -0.685766    1.836738
S     -6.054964   -0.337092    2.439420
C     -3.655056    0.968008   -0.427795
S     -4.540122    2.065153   -1.568906
C     -2.947720    2.551099   -2.110681
C     -1.863859    1.937918   -1.475097
C     -2.257182    1.001856   -0.476220
H      0.935914    0.397404   -1.254883
H      0.965118    1.748305   -0.073531
H     -0.145559   -1.437811    2.198509
H      2.452793   -1.388727    2.047501
H      3.202865    0.495292   -2.090893
H      5.466299    1.063380   -2.791203
H      7.373361    1.364430   -1.164289
H      7.819718    1.286781    1.694269
H      6.288190    0.851946    3.637521
H      3.913972    0.375499    3.024270
H     -6.440886   -0.457589   -1.128233
H     -8.454617   -0.864418    2.501584
H     -2.899203    3.293617   -2.895919
H     -0.843078    2.180023   -1.740350
