47

C     -1.911160    1.305898   -4.542871
C     -1.271171   -0.028833   -4.144498
C     -0.255234   -0.487655   -5.196697
C     -2.338467   -1.100380   -3.908312
C     -3.258970   -1.621458   -4.807228
C     -4.143368   -2.602028   -4.353928
C     -4.100500   -3.047268   -3.022950
C     -3.171564   -2.519788   -2.120810
C     -2.292628   -1.546665   -2.568983
C     -1.243693   -0.835214   -1.869432
C     -0.821574   -0.927765   -0.550748
C      0.235538   -0.113578   -0.101829
C      0.703908   -0.193458    1.291614
C      1.107944   -1.413125    1.851165
C      1.556607   -1.490983    3.177625
C      1.613782   -0.352696    3.999934
C      2.076973   -0.411033    5.400968
C      1.947183   -1.538529    6.213755
N      2.376860   -1.594191    7.501532
C      2.946801   -0.462010    7.963432
C      3.077452    0.669356    7.179896
N      2.647851    0.720714    5.897376
C      1.214933    0.867602    3.426965
C      0.767115    0.947078    2.101741
C      0.841420    0.782210   -1.014210
C      0.418832    0.877190   -2.343947
C     -0.623427    0.064641   -2.760619
H     -2.437259    1.225892   -5.501135
H     -2.640344    1.643906   -3.796313
H     -1.157419    2.095187   -4.644629
H     -0.728901   -0.624481   -6.175659
H      0.209282   -1.442527   -4.921463
H      0.550851    0.244943   -5.319112
H     -3.296436   -1.280365   -5.836547
H     -4.874649   -3.026449   -5.037937
H     -4.799123   -3.811461   -2.690408
H     -3.148283   -2.870696   -1.094807
H     -1.311597   -1.615283    0.132105
H      1.094647   -2.319274    1.247758
H      1.882171   -2.462009    3.544182
H      1.473074   -2.447525    5.860343
H      3.296961   -0.486774    8.988791
H      3.535117    1.574150    7.562975
H      1.246611    1.780512    4.020963
H      0.457635    1.914718    1.711416
H      1.667747    1.410142   -0.684003
H      0.901982    1.569706   -3.025340
