34

C      4.182654   -0.886977   -1.512736
C      4.659147    0.382862   -1.259209
N      3.874605    1.431036   -0.925895
C      2.556195    1.249276   -0.833658
N      1.795135    2.294203   -0.504595
C      0.454974    2.125038   -0.405420
C     -0.204692    0.920577   -0.609253
C     -1.653961    0.803339   -0.484698
C     -2.457882    0.979807   -1.629269
C     -3.836537    0.872048   -1.560124
C     -4.451750    0.582821   -0.347243
C     -3.659105    0.402998    0.805276
S     -4.255952    0.039247    2.374546
C     -2.702471    0.014348    3.043665
N     -2.543844   -0.242566    4.359857
C     -1.266175   -0.230256    4.778882
C     -0.170192    0.014216    3.976822
C     -0.380491    0.270969    2.623456
C     -1.702559    0.276570    2.112735
C     -2.260323    0.506408    0.779766
C      0.591273   -0.168660   -0.959959
C      1.981801   -0.014986   -1.073488
C      2.814934   -1.089296   -1.417027
H      4.857072   -1.693564   -1.776706
H      5.721136    0.605803   -1.317783
H     -0.092316    3.026503   -0.137825
H     -1.993854    1.206124   -2.588654
H     -4.440583    1.012969   -2.453371
H     -5.534313    0.496823   -0.290346
H     -1.135350   -0.432982    5.839362
H      0.832203    0.009175    4.391572
H      0.478234    0.466416    1.990302
H      0.130015   -1.137664   -1.139350
H      2.403180   -2.076669   -1.608854
