49

C      6.406919   -1.531885   -2.468059
C      5.345151   -1.946082   -3.239174
C      4.153703   -1.483851   -2.616580
C      2.791095   -1.567068   -2.926447
C      1.847918   -0.962150   -2.049629
C      0.458452   -0.946338   -2.298169
C     -0.188626   -1.493566   -3.383477
N     -1.531121   -1.236385   -3.237528
C     -1.749742   -0.531331   -2.076845
C     -0.528100   -0.335920   -1.470986
C     -0.284944    0.330527   -0.251718
C     -1.354501    0.932022    0.529458
C     -1.165422    1.573243    1.765839
C     -2.219496    2.180469    2.544502
C     -2.322310    3.567110    2.842199
C     -3.389831    4.164458    3.607022
C     -4.473608    3.443695    4.159142
C     -4.353028    2.094664    3.857426
C     -5.205943    1.089236    4.225320
O     -4.737925   -0.104021    3.744838
C     -3.575562    0.150788    3.067060
C     -3.302773    1.494857    3.101407
C      0.179222    1.511649    2.132691
C      0.689331    1.968266    3.325573
N      2.023829    1.662218    3.339922
C      2.369592    1.003562    2.179312
C      1.257519    0.921746    1.368768
C      1.146205    0.302690    0.071905
C      2.198921   -0.286488   -0.833958
C      3.592068   -0.203094   -0.597527
C      4.525459   -0.798425   -1.467979
N      5.901059   -0.832907   -1.404260
H      7.473124   -1.669741   -2.586084
H      5.414757   -2.515972   -4.156219
H      2.475712   -2.077152   -3.829201
H      0.166945   -2.038010   -4.246915
H     -2.251642   -1.522383   -3.887808
H     -2.756009   -0.245919   -1.804235
H     -2.369746    0.893789    0.136401
H     -1.545121    4.233212    2.462056
H     -3.355021    5.243429    3.764414
H     -5.268300    3.900130    4.730984
H     -6.125213    1.034597    4.790503
H     -3.088100   -0.714359    2.639604
H      0.227167    2.453950    4.174660
H      2.654425    1.850714    4.108351
H      3.380068    0.642403    2.093638
H      3.979905    0.356264    0.238886
H      6.451088   -0.407023   -0.671517
