28

Cl     0.446990   -5.685803    3.995095
C      0.279621   -4.290587    3.002314
C     -0.075711   -3.070980    3.577171
C     -0.212531   -1.935495    2.773391
C      0.500363   -4.388173    1.629021
C      0.365229   -3.256551    0.819558
C      0.007871   -2.025195    1.390303
N     -0.130292   -0.873232    0.570415
N      0.073732   -0.916802   -0.770650
C     -0.152328    0.349190   -1.159474
C     -0.486351    1.101230   -0.011885
N     -0.474110    0.336673    1.080712
C     -0.045545    0.777301   -2.555587
C      0.304823   -0.143863   -3.555826
C      0.410100    0.252017   -4.891946
C      0.166339    1.575749   -5.247302
C     -0.182318    2.503121   -4.268424
C     -0.287923    2.107718   -2.930771
H     -0.247537   -2.996158    4.647885
H     -0.490526   -0.990805    3.237701
H      0.777323   -5.339544    1.182123
H      0.541046   -3.349528   -0.250764
H     -0.733305    2.149389    0.078850
H      0.499909   -1.184099   -3.300936
H      0.682541   -0.475701   -5.652124
H      0.248114    1.884122   -6.286489
H     -0.372775    3.537127   -4.545670
H     -0.562165    2.861036   -2.197556
