35

C     -3.349863   -0.416487   -5.061138
C     -2.446333   -0.288807   -3.859340
O     -2.643665   -0.964437   -2.857892
N     -1.424643    0.618312   -4.072401
C     -0.399834    0.998030   -3.178211
C      0.536800    1.921294   -3.660748
C      1.584849    2.357108   -2.853500
C      1.703344    1.873277   -1.552739
C      0.777132    0.952362   -1.045998
N      0.981646    0.525252    0.284349
C      0.212652   -0.357574    1.024465
O     -0.794612   -0.943999    0.652031
C      0.789406   -0.557223    2.420905
C     -0.104173   -1.395377    3.338898
C     -1.375998   -0.675043    3.781469
C     -1.077873    0.412955    4.773057
O     -0.793530    0.260747    5.949176
O     -1.106178    1.643434    4.228786
C     -0.272669    0.518834   -1.867216
H     -3.517904    0.558209   -5.528332
H     -4.319694   -0.812766   -4.746563
H     -2.896541   -1.099095   -5.784657
H     -1.396375    1.054504   -4.984680
H      0.464614    2.312526   -4.672217
H      2.307569    3.072360   -3.237165
H      2.528902    2.228188   -0.941308
H      1.784932    0.921504    0.754672
H      1.747895   -1.077011    2.299295
H      0.996892    0.419495    2.871252
H      0.478303   -1.680676    4.223774
H     -0.383227   -2.326419    2.830882
H     -1.933752   -0.261521    2.934942
H     -2.053153   -1.381379    4.276180
H     -0.921338    2.240846    4.983387
H     -0.994585   -0.192762   -1.484789
