34

C     -4.352279    1.389542    1.262114
C     -3.721812    1.036506    0.073206
C     -2.327314    0.885458    0.018844
C     -1.674770    0.571914   -1.240582
C     -1.723888   -0.565205   -2.024057
C     -0.915040   -0.348176   -3.174154
C     -0.569162   -1.119568   -4.289798
N      0.249670   -0.617156   -5.247646
C      0.722302    0.641321   -5.106701
C      0.438734    1.485369   -4.043156
C     -0.402090    0.944522   -3.073407
N     -0.888630    1.484560   -1.906306
C     -1.550324    1.068226    1.192125
C     -2.223630    1.437078    2.361801
C     -3.613219    1.604733    2.426374
N     -1.280511    1.584309    3.350917
C     -0.024275    1.300017    2.879379
C      1.201967    1.311055    3.532146
N      2.315615    0.966823    2.849882
C      2.201146    0.607405    1.554080
C      1.009846    0.578424    0.844237
C     -0.155193    0.953843    1.534991
H     -5.433532    1.506403    1.282796
H     -4.318783    0.890043   -0.824469
H     -2.275099   -1.466063   -1.786192
H     -0.926216   -2.131427   -4.442040
H      1.370089    0.974763   -5.913751
H      0.843498    2.486636   -3.980457
H     -0.687662    2.416467   -1.570172
H     -4.108496    1.886603    3.350639
H     -1.489629    1.850424    4.302201
H      1.326311    1.578286    4.574308
H      3.134190    0.324672    1.073474
H      0.996861    0.260148   -0.190546
