45

C     -2.733212    0.584280   -1.226399
C     -3.218706    1.867733   -0.593223
C     -2.322286    2.316382    0.303037
C     -1.179002    1.407604    0.337499
C     -1.387044    0.379423   -0.586409
C     -0.409332   -0.617428   -0.816262
C     -0.528142   -1.769041   -1.662923
C     -1.682025   -2.147601   -2.315198
S     -1.506266   -3.597594   -3.209013
C      0.130642   -3.742885   -2.743508
C      0.537535   -2.713922   -1.919303
C      1.866367   -2.578208   -1.450926
C      2.923333   -3.490243   -1.802829
C      4.260344   -3.276814   -1.475253
C      4.527768   -2.051164   -0.844284
N      5.762087   -1.615736   -0.547465
S      5.588000   -0.092383    0.068857
N      3.946740    0.061800    0.019061
C      3.422983   -1.089469   -0.444612
C      2.006890   -1.385763   -0.632941
C      0.865661   -0.524452   -0.155774
C      0.927332    0.413259    0.968511
C      1.906089    0.339126    1.991797
C      2.011896    1.264063    3.036405
C      1.104798    2.300668    3.126486
C      0.065917    2.367046    2.206326
C     -0.061914    1.418220    1.164512
C     -4.429583    2.587499   -0.820600
N     -4.803408    3.707145   -0.224771
C     -6.033571    4.124890   -0.689078
C     -6.609265    3.322509   -1.645488
S     -5.580829    1.998143   -1.979760
H     -2.635731    0.700473   -2.310357
H     -3.417537   -0.228901   -0.965815
H     -2.415837    3.209654    0.901854
H     -2.656916   -1.693618   -2.336715
H      0.687516   -4.586385   -3.123510
H      2.703658   -4.390091   -2.374558
H      5.049136   -3.963096   -1.756877
H      2.610930   -0.488315    2.015078
H      2.803292    1.160116    3.773525
H      1.177453    3.030478    3.927345
H     -0.669652    3.157427    2.333909
H     -6.468775    5.032981   -0.290128
H     -7.556941    3.448372   -2.148309
