34

C      5.380476    0.515385    1.742985
C      4.715268    0.939581    2.882664
C      3.327961    0.806702    2.961297
C      2.570096    0.248677    1.910296
C      3.249319   -0.156381    0.752536
C      4.653445   -0.030605    0.688082
C      2.542718   -0.772990   -0.425504
C      1.371004    0.071269   -0.908524
C      0.112075   -0.186896   -0.121591
C     -1.074250   -0.464405   -0.843095
C     -2.295467   -0.701059   -0.199205
C     -3.527600   -0.997217   -0.928555
C     -3.583758   -1.422752   -2.243718
S     -5.214432   -1.664766   -2.724204
C     -5.720787   -1.201408   -1.155580
N     -4.767433   -0.883779   -0.309207
C     -2.320579   -0.638269    1.193672
C     -1.157048   -0.351868    1.914426
C      0.074772   -0.112911    1.276488
N      1.178841    0.165417    2.100628
H      6.460558    0.608435    1.671610
H      5.269119    1.371791    3.711257
H      2.832801    1.150423    3.866710
H      5.192243   -0.360592   -0.198032
H      2.235336   -1.795371   -0.171601
H      3.249864   -0.861582   -1.260571
H      1.194685   -0.184783   -1.961335
H      1.600384    1.144182   -0.886607
H     -1.025101   -0.479705   -1.929254
H     -2.780046   -1.611006   -2.939498
H     -6.767450   -1.175651   -0.882230
H     -3.248681   -0.812088    1.734873
H     -1.227213   -0.317826    2.999377
H      0.910249    0.339052    3.062779
