38

O      2.368620    0.616806   -2.403088
C      1.387105    1.369931   -2.988069
C      0.091209    1.470668   -2.473498
C     -0.330491    0.767750   -1.246573
N      0.487870    0.014453   -0.578473
N     -0.134375   -0.536571    0.531800
C      0.685245   -1.289658    1.199007
C      0.264086   -1.992759    2.425869
C     -1.033247   -1.892231    2.941561
O     -2.013813   -1.137534    2.354013
C     -1.390802   -2.574427    4.105917
C     -0.450034   -3.365557    4.766167
O     -0.664024   -4.084307    5.910061
C     -1.967757   -4.016189    6.475558
C      0.846423   -3.465583    4.250196
C      1.207790   -2.783969    3.084745
C     -0.853427    2.262856   -3.133496
C     -0.501110    2.949751   -4.302044
C      0.794219    2.847970   -4.814817
O      1.261698    3.465405   -5.941953
C      0.347149    4.285752   -6.657596
C      1.734342    2.054643   -4.150885
H      1.981822    0.198629   -1.604037
H     -1.375975    0.907711   -0.915830
H      1.730708   -1.429219    0.867755
H     -1.623233   -0.720981    1.555322
H     -2.407527   -2.466131    4.467575
H     -2.214219   -2.992753    6.777074
H     -1.974316   -4.638844    7.375388
H     -2.718187   -4.418347    5.786936
H      1.581006   -4.082180    4.764086
H      2.222431   -2.880740    2.707547
H     -1.867150    2.355927   -2.751533
H     -1.260384    3.554912   -4.787072
H      0.005473    5.125005   -6.042827
H     -0.498393    3.699751   -7.032684
H      0.874956    4.699635   -7.522193
H      2.744753    1.969700   -4.542879
