41

C      0.237233   -1.258812    2.901187
C      0.915580   -0.618067    4.078541
C      1.571328    0.479898    3.672852
C      1.387733    0.646724    2.253879
C      0.617727   -0.343150    1.759847
C      0.216975   -0.507200    0.363053
C      0.613732    0.372555   -0.687660
C      0.239029    0.243399   -2.071666
C     -0.584599   -0.787269   -2.570853
C     -0.993960   -0.926252   -3.951126
S      0.196949   -1.008084   -5.225811
C     -0.987258   -1.166709   -6.482910
C     -2.199748   -1.143844   -5.902127
O     -3.401058   -1.232754   -6.533959
C     -4.244388   -1.140301   -5.441160
C     -3.581901   -1.003956   -4.214159
C     -2.212102   -1.013418   -4.535523
C     -0.971035   -1.653572   -1.546533
C     -1.736955   -2.786147   -1.652378
O     -1.883532   -3.358474   -0.424860
C     -1.191084   -2.594554    0.471782
C     -0.596003   -1.529211   -0.159835
C      0.824258   -1.170079    5.422719
N      0.104255   -2.283486    5.576166
C      0.058668   -2.739049    6.825576
N      0.650677   -2.190237    7.882953
C      1.337431   -1.085975    7.601725
N      1.464087   -0.526020    6.402036
H      0.623726   -2.271127    2.741021
H     -0.847968   -1.275812    3.048928
H      2.151238    1.146912    4.293744
H      1.830430    1.470098    1.714526
H      1.253988    1.223127   -0.451043
H      0.613326    0.999946   -2.763126
H     -0.742312   -1.260546   -7.530563
H     -5.295556   -1.184301   -5.695407
H     -4.050176   -0.910267   -3.244642
H     -2.226524   -3.304673   -2.464830
H     -1.234877   -2.966162    1.483854
H     -0.515367   -3.643164    6.998294
H      1.841313   -0.596293    8.428095
