32

C     -6.577197   -0.581222    1.106133
C     -5.909538   -0.049900    2.181435
O     -4.580899    0.033250    1.920851
C     -4.372225   -0.451123    0.654221
C     -5.590436   -0.839568    0.123850
C     -3.071081   -0.504624    0.066576
C     -2.658897   -0.953059   -1.182795
C     -1.277591   -0.763706   -1.200133
C     -0.301321   -1.029845   -2.197936
N     -0.627921   -1.553729   -3.374421
S      0.860337   -1.663771   -4.166932
N      1.898903   -1.038022   -2.988897
C      1.084791   -0.743896   -1.978928
C      1.566620   -0.173578   -0.742410
C      2.903991    0.157518   -0.395072
C      4.132410    0.058470   -1.069483
N      5.289120    0.459007   -0.487751
C      5.257129    0.960661    0.759571
C      4.109152    1.103438    1.513546
C      2.917502    0.687707    0.906616
S      1.328655    0.746452    1.607989
C      0.633924    0.086651    0.225558
C     -0.850999   -0.224647   -0.021309
N     -1.955540   -0.063794    0.761988
H     -7.640810   -0.760350    1.037364
H     -6.218210    0.301741    3.156032
H     -5.746849   -1.260852   -0.859397
H     -3.285753   -1.359759   -1.965356
H      4.227793   -0.336298   -2.075637
H      6.222806    1.259973    1.158814
H      4.133335    1.513495    2.515499
H     -1.978696    0.313883    1.700748
