36

C     -5.769025   -1.140656    0.618756
O     -4.905262   -1.383649   -0.484367
C     -3.609722   -0.964023   -0.357703
C     -3.063472   -0.306563    0.744582
C     -1.714577    0.069333    0.740909
C     -0.900333   -0.199370   -0.366657
C      0.508593    0.185449   -0.347004
N      1.284667   -0.225575    0.667720
N      2.526043    0.235559    0.393371
C      3.617145   -0.042375    1.264917
C      3.398601   -0.811883    2.418786
C      4.454528   -1.096516    3.287274
C      5.733111   -0.617098    3.012020
C      5.958852    0.147097    1.868339
C      4.906820    0.436293    0.993688
C      2.537571    0.961398   -0.770419
C      1.248789    0.970994   -1.273651
C      0.859345    1.673893   -2.474036
O      1.633001    2.231303   -3.240415
O     -0.464634    1.716309   -2.719570
C     -1.447688   -0.872323   -1.463240
C     -2.795087   -1.245582   -1.457376
H     -5.880354   -0.067155    0.803877
H     -6.756203   -1.538245    0.364083
H     -5.421039   -1.663457    1.515815
H     -3.652882   -0.074084    1.624782
H     -1.297373    0.570825    1.611967
H      2.408654   -1.199126    2.654553
H      4.276185   -1.693730    4.177949
H      6.554095   -0.839859    3.688809
H      6.958354    0.519221    1.655986
H      5.130838    1.034094    0.115960
H      3.431843    1.427339   -1.155949
H     -0.531290    2.242235   -3.542156
H     -0.834817   -1.116671   -2.326621
H     -3.212354   -1.765407   -2.316271
