36

C     -0.509055   -2.250041    0.437583
C     -0.254499   -0.749608    0.605818
C     -0.796598    0.306453    1.370149
C     -0.147949    1.507070    1.089441
S      1.125866    1.307582   -0.076581
C      0.779005   -0.308459   -0.202387
C      1.266349   -1.411889   -0.928668
N      2.214043   -1.688634   -1.854863
C      2.140029   -3.052441   -2.145417
C      2.888896   -3.851718   -3.028691
C      2.601725   -5.228029   -3.132340
C      1.555910   -5.744034   -2.328183
N      1.139575   -7.025570   -2.290319
S     -0.117048   -7.088431   -1.178953
N     -0.189344   -5.483094   -0.690577
C      0.774076   -4.932363   -1.412563
C      1.107874   -3.550156   -1.349197
C      0.551829   -2.542808   -0.586645
C     -0.381425    2.818079    1.678371
C     -0.196865    3.064972    3.056696
C     -0.425551    4.325632    3.655929
C     -0.865562    5.447663    2.933650
C     -1.081667    5.258602    1.546778
N     -1.507665    6.199764    0.690530
S     -1.607094    5.469430   -0.796497
N     -1.118717    3.930323   -0.423120
C     -0.839955    3.914973    0.893182
H     -1.513582   -2.438439    0.050211
H     -0.332629   -2.787091    1.373036
H     -1.613059    0.214262    2.075431
H      2.860196   -1.029747   -2.267959
H      3.684449   -3.419430   -3.630855
H      3.157752   -5.874207   -3.802220
H      0.148875    2.249735    3.694188
H     -0.251078    4.431701    4.727229
H     -1.036766    6.407811    3.405733
