38

O     -3.313961   -0.998768   -2.052196
C     -2.723978   -0.762613   -1.001372
C     -2.969699   -1.617901    0.231003
S     -1.702104   -2.897187    0.403178
C     -0.426626   -2.024875    1.201564
N     -0.434675   -0.669914    1.393446
C      0.703206   -0.466155    2.022189
N      1.379744   -1.650827    2.198476
C      2.633272   -1.878629    2.821438
C      3.369725   -0.823751    3.379206
C      4.602633   -1.079482    3.986952
C      5.104530   -2.378765    4.041035
C      4.376349   -3.430213    3.488660
C      3.144102   -3.184503    2.879912
N      0.648979   -2.656747    1.664599
N     -1.824347    0.254640   -0.774328
C     -1.470718    1.163542   -1.729039
N     -1.951003    1.334016   -2.930301
C     -1.289887    2.381216   -3.547138
C     -1.528308    2.855957   -4.852540
C     -0.781748    3.929117   -5.350112
C      0.196259    4.531760   -4.564776
C      0.453235    4.080332   -3.266135
C     -0.303042    3.002445   -2.776466
S     -0.228859    2.225030   -1.239542
H     -3.045862   -0.993625    1.127560
H     -3.941544   -2.108935    0.109593
H      1.074920    0.490080    2.359384
H      3.022262    0.204459    3.363449
H      5.174724   -0.262866    4.421517
H      6.063999   -2.573050    4.514563
H      4.767087   -4.444219    3.529999
H      2.595903   -4.023786    2.453947
H     -1.296298    0.270254    0.093537
H     -2.292283    2.380403   -5.460108
H     -0.969838    4.290863   -6.358332
H      0.769967    5.364840   -4.965944
H      1.218183    4.550614   -2.656454
