32

C      0.433174    1.757226    0.846630
C     -0.267741    0.367740    0.612291
C      0.427988   -0.357329   -0.314322
C      1.510287    0.440403   -0.695426
N      2.534126    0.286557   -1.556548
C      3.301305    1.447857   -1.498809
C      4.467131    1.786591   -2.196411
C      5.037955    3.037532   -1.940435
C      4.466979    3.917889   -1.022646
C      3.301348    3.574026   -0.328058
C      2.705728    2.322901   -0.565308
C      1.577069    1.650081   -0.079894
C     -1.451897   -0.138200    1.230157
S     -2.162138   -1.704632    0.894920
C     -3.470816   -1.494966    2.006335
C     -3.325235   -0.283047    2.572589
C     -3.960595    0.550498    3.520877
C     -3.198216    1.731718    3.601459
N     -2.098865    1.693625    2.744944
C     -2.238175    0.461930    2.162735
H      0.765416    1.853279    1.884490
H     -0.233226    2.578976    0.568424
H      0.215192   -1.344170   -0.696729
H      2.727510   -0.512931   -2.143612
H      4.917536    1.106933   -2.912274
H      5.944059    3.327635   -2.467839
H      4.931586    4.884351   -0.842815
H      2.865561    4.267450    0.384245
H     -4.223421   -2.255635    2.153289
H     -4.858562    0.344593    4.088130
H     -3.354488    2.611994    4.211924
H     -1.383023    2.388618    2.589455
