46

Si     3.712892    1.712193    2.964563
C      2.941595    3.074627    1.959729
C      2.059693    2.592314    1.056666
C      1.186578    3.437371    0.218415
C      0.210998    2.828516   -0.493762
C      0.130316    1.400140   -0.498737
S     -1.102052    0.604316   -1.351481
C     -0.475692   -0.984090   -1.041726
C      0.708220   -0.818382   -0.311401
C      1.542189   -1.987920   -0.119223
N      2.763133   -1.939675    0.390692
S      3.280642   -3.520288    0.357213
N      1.953814   -4.243817   -0.338437
C      1.051074   -3.269323   -0.592636
C     -0.197503   -3.430675   -1.230794
C     -0.601539   -4.776818   -1.675863
C     -1.755780   -4.972162   -2.328991
C     -2.636918   -3.858096   -2.589086
C     -3.823230   -3.998742   -3.210192
Si    -4.718925   -2.376282   -3.328378
C     -3.270127   -1.588738   -2.435660
C     -2.289709   -2.473976   -2.153227
C     -0.978631   -2.259229   -1.456960
C      0.980951    0.509253    0.142966
C      1.938073    1.096393    1.052831
C      2.656563    0.503654    2.026310
C      1.262015    4.857322    0.104625
C      0.351265    5.886780    0.252703
C      1.026677    7.102902   -0.013668
C      2.328973    6.787574   -0.327722
N      2.461615    5.424784   -0.259465
H      3.351740    1.794308    4.400006
H      5.159755    1.559313    2.678413
H      3.150858    4.108333    2.185398
H     -0.476105    3.399319   -1.112780
H      0.060274   -5.613606   -1.473392
H     -2.044057   -5.965501   -2.657356
H     -4.256511   -4.910346   -3.590307
H     -4.849951   -1.894794   -4.724520
H     -5.961009   -2.348388   -2.519247
H     -3.336629   -0.539001   -2.222732
H      2.662485   -0.532806    2.312673
H     -0.688645    5.774034    0.531475
H      0.606326    8.099740    0.018251
H      3.170279    7.412042   -0.596447
H      3.310558    4.908198   -0.450276
