31

F     -2.169636    0.934186   -3.017926
C     -0.861837    1.326602   -3.018922
F     -0.796432    2.370231   -3.893183
F     -0.170343    0.308501   -3.600477
C     -0.348120    1.661081   -1.642608
C      0.578493    2.714916   -1.506202
C      1.117336    3.038923   -0.263642
C      0.736838    2.315519    0.859098
C     -0.173757    1.263346    0.738738
C     -0.710887    0.909606   -0.506893
N     -1.649170   -0.147589   -0.639732
C     -2.036189   -1.081241    0.263349
S     -3.642106   -1.549910    0.291336
N     -1.181865   -1.657456    1.142828
C      0.185138   -1.988865    1.006112
C      0.837739   -2.479472    2.145005
C      2.187349   -2.837401    2.095873
C      2.893134   -2.720384    0.900933
C      2.240438   -2.258678   -0.239540
Cl     3.106284   -2.133075   -1.722417
C      0.890994   -1.904346   -0.195573
H      0.887662    3.288666   -2.379738
H      1.829536    3.855411   -0.171963
H      1.143469    2.569943    1.834891
H     -0.468948    0.747016    1.647256
H     -2.321182   -0.038385   -1.398462
H     -1.656912   -2.123383    1.909393
H      0.307785   -2.572717    3.090222
H      2.686293   -3.205452    2.988938
H      3.943234   -2.997166    0.861776
H      0.406967   -1.592010   -1.113958
