43

C      6.167732    0.290377   -3.284709
C      5.015743    0.281290   -2.489251
C      4.127474   -0.771926   -2.831596
C      2.922070   -1.179309   -2.363778
S      2.430085   -2.543196   -3.300537
C      3.857221   -2.522255   -4.269098
C      4.675058   -1.497461   -3.888179
S      6.276501   -0.964493   -4.513793
C      2.076500   -0.675963   -1.300256
C      0.816824   -0.063473   -1.527483
C     -0.073560    0.485915   -0.520736
C     -1.336964    1.090203   -0.849378
C     -1.842481    1.206942   -2.170762
C     -3.076385    1.801138   -2.460541
C     -3.861798    2.306107   -1.437661
C     -3.414869    2.217036   -0.123987
C     -2.170637    1.618857    0.179668
C     -1.754374    1.548120    1.532420
C     -0.533546    0.961222    1.838656
O     -0.285512    0.975328    3.183269
C     -1.359942    1.577762    3.752622
C     -1.684165    1.879601    5.088466
C     -2.913498    2.504578    5.112527
S     -3.630752    2.707382    3.553730
C     -2.261447    1.936963    2.809785
C      0.320304    0.428212    0.862782
C      1.575003   -0.184360    1.106625
C      2.156802   -0.359425    2.342958
S      3.675030   -1.155137    2.247968
C      3.574457   -1.282173    0.543136
C      2.417961   -0.715848    0.055901
H      6.992108    0.987742   -3.220728
H      4.844763    1.008680   -1.704420
H      4.032651   -3.240614   -5.057917
H      0.518364   -0.007283   -2.573946
H     -1.283466    0.832342   -3.023342
H     -3.417700    1.864966   -3.490950
H     -4.820406    2.767810   -1.658660
H     -4.052946    2.620994    0.656433
H     -1.076450    1.661050    5.955452
H     -3.448795    2.864952    5.980918
H      1.796485   -0.077783    3.321049
H      4.376217   -1.769070    0.004928
