47

C      2.831046    0.094207    0.788717
C      2.978040    1.544225    1.270038
C      1.769926    2.116465    1.436679
C      0.785143    1.123478    1.100257
C      1.337217   -0.101033    0.709728
C      0.548076   -1.261902    0.317897
C      1.054840   -2.519518   -0.139309
C      2.392711   -2.812840   -0.296910
S      2.673771   -4.396846   -0.885657
C      0.999607   -4.728596   -0.935737
C      0.238548   -3.657400   -0.515859
C     -1.178554   -3.707821   -0.442887
C     -1.963611   -4.847032   -0.779231
C     -3.339409   -4.836131   -0.603899
C     -3.937184   -3.709505   -0.070267
C     -3.163003   -2.583930    0.249909
C     -1.763711   -2.497291    0.039212
C     -0.935044   -1.287427    0.331778
C     -1.410219    0.040793    0.663152
C     -2.687748    0.555007    0.587027
N     -2.662146    1.873945    0.996419
C     -1.373892    2.257396    1.265661
C     -0.585903    1.159834    1.034242
C      4.187651    2.259549    1.523653
S      5.739905    1.442613    1.354279
C      6.672306    2.831912    1.790204
C      5.815652    3.838802    2.040367
N      6.147603    5.108305    2.414157
C      4.890857    5.694703    2.525520
C      3.863492    4.776300    2.221113
C      4.479361    3.533206    1.897319
H      3.289088   -0.009389   -0.199962
H      3.272901   -0.592123    1.517916
H      1.529107    3.113275    1.759975
H      3.267254   -2.213583   -0.115959
H      0.684809   -5.705435   -1.271268
H     -1.506633   -5.752864   -1.165015
H     -3.933614   -5.710169   -0.853757
H     -5.008036   -3.697897    0.117039
H     -3.696742   -1.776937    0.734986
H     -3.630955    0.153670    0.253687
H     -3.470430    2.481230    1.038855
H     -1.144732    3.272203    1.560542
H      7.752051    2.819800    1.832245
H      7.072247    5.493325    2.562631
H      4.820328    6.735113    2.816004
H      2.807755    5.007877    2.238873
