41

C     -4.263543    3.755745   -0.844691
C     -5.002807    3.566819    0.442020
C     -4.323852    2.707018    1.212981
C     -4.590643    2.366818    2.580217
C     -3.678326    1.642709    3.247298
C     -2.453285    1.123011    2.584162
C     -1.530727    0.451785    3.376854
C     -0.387534   -0.111611    2.810521
C     -0.141758   -0.129498    1.421482
C      1.053423   -0.785313    0.895803
C      2.096904   -1.320359    1.676060
N      3.221836   -1.937370    1.223167
C      3.379817   -2.063779   -0.112886
C      2.432310   -1.583354   -0.999047
C      1.279239   -0.946783   -0.489212
C      0.261366   -0.465803   -1.360094
N      0.265538   -0.587660   -2.700693
S     -1.159512    0.036917   -3.245679
N     -1.826523    0.514978   -1.818081
C     -0.956891    0.245256   -0.827778
C     -1.138100    0.505321    0.588368
C     -2.221037    1.248588    1.185106
C     -3.144159    2.202948    0.506909
C     -3.062363    2.875753   -0.654796
C      4.599855   -2.734974   -0.600515
N      4.890737   -2.927092   -1.877508
C      6.099385   -3.582362   -2.001132
C      6.731696   -3.890499   -0.818811
S      5.786772   -3.344328    0.499166
H     -4.861310    3.432781   -1.701812
H     -3.965484    4.800337   -0.974640
H     -5.893625    4.108366    0.719461
H     -5.486140    2.738537    3.064397
H     -3.838132    1.399767    4.292821
H     -1.679315    0.367518    4.451585
H      0.287371   -0.594062    3.513629
H      2.085418   -1.263961    2.760968
H      2.577882   -1.701317   -2.070348
H     -2.261166    2.840435   -1.373508
H      6.477468   -3.813742   -2.989567
H      7.675064   -4.395105   -0.669919
