34

O      3.754222    1.045024    2.807126
C      2.928123    0.237638    3.224703
C      1.844119   -0.333685    2.468158
C      0.867839   -1.243982    2.814318
C      0.079283   -1.443837    1.654653
C      0.600939   -0.634423    0.658477
O      1.684751    0.032076    1.163459
C      0.177832   -0.499247   -0.702029
C      0.930634   -0.587281   -1.850513
C      2.319764   -0.701428   -1.927776
C      2.756863   -0.828219   -3.261944
C      1.876485   -0.854580   -4.385934
C      0.472645   -0.757586   -4.275306
C      0.012483   -0.621131   -2.954501
N     -1.241357   -0.536107   -2.495285
N     -1.127958   -0.308175   -1.151992
C     -2.295655    0.099642   -0.432776
C     -2.213735    0.778836    0.789926
C     -3.378582    1.168352    1.458700
C     -4.629465    0.897110    0.908250
C     -4.721084    0.248289   -0.320389
C     -3.561090   -0.141382   -0.993807
H      2.988586   -0.107653    4.270988
H      0.742497   -1.716675    3.778845
H     -0.770575   -2.105991    1.550826
H      2.999771   -0.687248   -1.086217
H      3.828412   -0.913597   -3.447358
H      2.312008   -0.959541   -5.379752
H     -0.192934   -0.788847   -5.126460
H     -1.263460    1.068162    1.228022
H     -3.307679    1.701411    2.403833
H     -5.532463    1.206321    1.428391
H     -5.694868    0.048743   -0.760555
H     -3.660448   -0.644788   -1.954346
