42

C     -0.024319    6.720093   -0.314427
C      0.062486    5.318845   -0.166789
C     -0.458093    4.737868   -1.354040
C     -0.704269    3.537034   -1.929609
S     -1.411173    3.863984   -3.493684
C     -1.352530    5.587598   -3.297136
C     -0.810118    5.845587   -2.091340
N     -0.582122    7.073111   -1.541879
C     -0.451711    2.170011   -1.475216
C      0.747226    1.849185   -0.848812
C      0.983903    0.544517   -0.402575
C      0.023861   -0.492187   -0.535486
C     -1.156123   -0.157936   -1.226949
C     -1.382761    1.143881   -1.658616
N     -2.097190   -1.052756   -1.518772
C     -1.892255   -2.345328   -1.175940
C     -0.805252   -2.869422   -0.473230
C     -0.704269   -4.316043   -0.186200
C     -1.619463   -5.285611   -0.644643
N     -1.573332   -6.626737   -0.420564
C     -0.549441   -7.086862    0.314359
C      0.428386   -6.269559    0.837645
C      0.349013   -4.878444    0.585292
C      1.243711   -3.893566    1.069287
C      2.304915   -4.194959    1.895366
S      3.137481   -2.793431    2.405448
C      2.073787   -1.778162    1.523696
C      1.150528   -2.476267    0.775325
C      0.156142   -1.874670   -0.074980
H      0.267829    7.504197    0.372485
H      0.450918    4.805968    0.702973
H     -1.707615    6.270770   -4.055389
H     -0.779133    7.982602   -1.941182
H      1.524509    2.600363   -0.723123
H      1.969899    0.351698    0.000884
H     -2.326966    1.351715   -2.159365
H     -2.715427   -2.970902   -1.509691
H     -2.476303   -5.017548   -1.256450
H     -0.535877   -8.160283    0.478243
H      1.224950   -6.707362    1.426280
H      2.637967   -5.153873    2.265017
H      2.208915   -0.718777    1.657488
