32

C      3.350344   -5.989966    1.323509
C      2.313077   -6.232349    2.204041
C      1.383939   -5.166237    2.082085
C      0.154892   -4.810246    2.668954
C     -0.535530   -3.620717    2.296363
C     -0.043472   -2.717243    1.319081
C     -0.539468   -1.483412    0.782245
S     -1.949771   -0.497595    1.045937
C     -1.421776    0.652054   -0.130582
C     -0.212846    0.287967   -0.697969
C      0.282855   -0.939816   -0.165226
S      1.706371   -1.914850   -0.445602
C      1.158469   -3.018326    0.711760
C      1.901579   -4.317745    1.126345
N      3.085429   -4.812072    0.668528
C     -2.202272    1.831740   -0.434662
S     -3.726455    2.251900    0.308296
C     -3.913091    3.716931   -0.603938
C     -2.841928    3.827651   -1.414228
C     -2.319936    4.693914   -2.385598
C     -1.117353    4.100266   -2.785761
O     -0.828513    2.912692   -2.140245
C     -1.918424    2.812683   -1.324743
H      4.249340   -6.551670    1.108079
H      2.234986   -7.086571    2.863617
H     -0.284042   -5.455647    3.426809
H     -1.482735   -3.400850    2.787328
H      0.309239    0.855766   -1.457546
H      3.666665   -4.378118   -0.036446
H     -4.771744    4.360006   -0.473791
H     -2.729278    5.619833   -2.763109
H     -0.368799    4.398263   -3.508581
