49

C     -2.664702   -4.684605    2.077909
C     -2.282079   -4.905224    3.514765
C     -1.397952   -3.968593    3.881309
C     -0.733301   -3.772060    5.143754
C      0.136436   -2.747589    5.240616
C      0.409036   -1.846446    4.115357
C     -0.195422   -1.958226    2.904327
C      0.142628   -1.021013    1.855811
C      1.274724   -0.991765    1.127093
C      1.292635    0.092694    0.152836
C      0.186007    0.979299    0.060779
Si    -1.065947    0.367072    1.386284
C      0.101042    2.100109   -0.873605
C     -1.020884    3.006886   -0.886137
N     -2.089521    2.960828   -0.067251
S     -3.081290    4.220360   -0.449914
N     -2.225421    4.898067   -1.685071
C     -1.112205    4.156639   -1.853287
C     -0.107649    4.385222   -2.842338
C     -0.257181    5.455507   -3.758672
C      0.672636    5.652398   -4.768023
C      1.734663    4.772087   -4.880787
C      1.881335    3.718527   -3.964758
C      0.999302    3.493988   -2.877413
C      1.136667    2.421858   -1.868048
C      2.254714    1.528465   -1.661347
C      3.515556    1.581900   -2.217327
N      4.261227    0.528217   -1.729097
C      3.531706   -0.173389   -0.805660
C      2.306339    0.438957   -0.719273
C     -1.131759   -3.072261    2.759332
C     -1.853489   -3.475601    1.702004
H     -3.735910   -4.484739    1.981923
H     -2.393055   -5.546919    1.461977
H     -2.662728   -5.701421    4.134931
H     -0.934502   -4.437188    5.974338
H      0.665772   -2.557551    6.169138
H      1.131564   -1.056524    4.305889
H      2.092571   -1.690185    1.233470
H     -2.307882   -0.173725    0.770600
H     -1.228922    1.336423    2.502765
H     -1.111689    6.126595   -3.689613
H      0.553038    6.468699   -5.474544
H      2.451702    4.886646   -5.690279
H      2.696287    3.035981   -4.167506
H      4.003883    2.267100   -2.890520
H      5.221781    0.332912   -1.981088
H      3.965129   -1.015894   -0.284205
H     -1.861898   -3.021307    0.723453
