35

C      1.063171   -3.288858   -0.582249
N      0.629867   -1.897225   -0.508249
C     -0.741324   -1.587965   -0.536919
C     -1.773477   -2.537270   -0.508225
C     -3.119416   -2.149999   -0.548025
C     -3.461634   -0.802829   -0.611737
C     -2.457538    0.159215   -0.626251
C     -1.115900   -0.233188   -0.581374
O     -0.194582    0.791219   -0.587350
C      1.139660    0.471373   -0.396000
C      2.029658    1.559339   -0.257383
C      1.580267    2.958544   -0.346015
N      1.741969    3.666703    0.802595
C      1.336483    4.944268    0.789380
N      0.806615    5.585387   -0.260656
C      0.684071    4.855619   -1.388888
C      1.058638    3.532024   -1.495271
C      0.936907    2.853084   -2.742044
N      0.839904    2.344477   -3.780692
C      3.380973    1.280483   -0.004712
C      3.831364   -0.033930    0.083975
C      2.938397   -1.095736   -0.080967
C      1.577804   -0.870877   -0.333655
H      0.398015   -3.900666   -1.201076
H      1.114929   -3.728047    0.419671
H      2.040765   -3.394864   -1.064946
H     -1.563721   -3.599452   -0.440290
H     -3.899741   -2.906849   -0.526289
H     -4.505656   -0.503647   -0.643915
H     -2.713920    1.213731   -0.667579
H      1.449529    5.508013    1.709173
H      0.265318    5.396757   -2.234795
H      4.089267    2.095547    0.134398
H      4.880248   -0.234983    0.288588
H      3.337330   -2.100175    0.016697
