42

C     -0.481093   -7.442963   -0.008042
C     -0.501058   -6.999055    1.297701
N     -0.469883   -5.686552    1.613066
C     -0.418438   -4.821761    0.579331
C     -0.384858   -3.453855    0.828611
C     -0.330770   -2.503677   -0.204569
C     -0.294226   -1.061959    0.088793
C      0.652883   -0.525585    0.970567
C      0.685481    0.849297    1.266057
C     -0.221275    1.736153    0.656492
C     -1.165818    1.203310   -0.240352
C     -1.204985   -0.177917   -0.503980
C     -2.175905    2.103648   -0.905207
C     -1.672287    3.538391   -0.969655
C     -1.217420    3.983144    0.411462
N     -0.184982    3.096098    0.931386
C      0.878337    3.656701    1.755152
C      1.293016    2.683874    2.847753
C      1.730009    1.367311    2.221765
C     -0.311373   -2.975862   -1.521499
C     -0.344816   -4.347688   -1.786840
C     -0.398183   -5.279264   -0.760900
N     -0.429232   -6.594234   -1.056731
H     -0.506362   -8.498943   -0.250362
H     -0.542936   -7.688726    2.132604
H     -0.413504   -3.124428    1.865772
H      1.384085   -1.182614    1.438665
H     -1.964984   -0.563669   -1.181248
H     -3.113125    2.057229   -0.337408
H     -2.382993    1.754881   -1.923764
H     -0.833689    3.607586   -1.674839
H     -2.464378    4.198297   -1.340116
H     -2.065140    3.997796    1.107405
H     -0.838494    5.009929    0.343933
H      1.736009    3.903810    1.117575
H      0.545510    4.590995    2.222882
H      2.109932    3.106297    3.443013
H      0.449064    2.511031    3.528331
H      1.909379    0.637797    3.020268
H      2.670063    1.502735    1.673261
H     -0.256902   -2.278903   -2.355884
H     -0.325531   -4.696893   -2.816191
