40

C      0.781346    5.074972   -3.140523
C      0.120259    4.344299   -4.113903
C     -0.312207    3.212323   -3.435179
C     -1.052213    2.068916   -3.812884
C     -1.563056    1.811418   -5.052936
N     -2.229289    0.606439   -4.933086
C     -2.136921    0.125538   -3.632019
C     -1.384050    1.025592   -2.930350
C     -0.987516    1.022337   -1.554507
C     -0.280473    2.139760   -1.141529
O      0.013591    2.058609    0.185847
C     -0.501976    0.864515    0.623684
C     -0.419176    0.393366    1.952231
C     -0.982366   -0.854716    2.315575
C     -0.943049   -1.375282    3.677790
C     -2.079550   -1.830011    4.345777
C     -1.958431   -2.294650    5.653647
C     -0.711881   -2.286954    6.264881
C      0.364919   -1.806459    5.541287
N      0.275150   -1.348844    4.273131
C     -1.542898   -1.513108    1.211152
C     -2.083891   -2.779848    1.193042
O     -2.501965   -3.106059   -0.068769
C     -2.208975   -2.046090   -0.888185
C     -1.634808   -1.073773   -0.132470
C     -1.104601    0.207504   -0.445849
C      0.074983    3.276044   -2.124719
O      0.758699    4.436178   -1.926692
H      1.297431    6.025270   -3.144613
H     -0.011572    4.620371   -5.149151
H     -1.538070    2.345414   -5.992873
H     -2.730062    0.145784   -5.682348
H     -2.640944   -0.791134   -3.384641
H      0.081695    1.001844    2.702044
H     -3.053582   -1.810624    3.867212
H     -2.831924   -2.652451    6.191202
H     -0.582632   -2.639943    7.281714
H      1.360715   -1.773049    5.974137
H     -2.231022   -3.554950    1.932431
H     -2.458350   -2.202021   -1.922484
