27

C     -0.245782   -0.509748    6.395269
C      0.371654    0.668077    6.745624
S      0.868673    1.496397    5.334470
C      0.226556    0.227747    4.353114
N     -0.326656   -0.756750    5.039817
C      0.296670    0.254446    2.880495
C      0.879409    1.290797    2.147370
N      0.974255    1.372351    0.796582
C      0.436571    0.321514    0.136781
C     -0.178381   -0.783330    0.751865
C     -0.249646   -0.817181    2.153555
S     -0.773531   -1.976154   -0.398750
C     -0.197833   -0.986389   -1.604112
C     -0.180854   -1.047983   -2.922659
N     -0.602265   -1.901453   -3.862405
C     -0.229433   -1.289658   -5.055443
C      0.414718   -0.069485   -4.811215
C      0.416311    0.032707   -3.409292
O      0.804803    0.830619   -2.386155
C      0.403767    0.161309   -1.261346
H     -0.658160   -1.230552    7.090988
H      0.548538    1.068303    7.733442
H      1.322425    2.153071    2.641388
H     -0.718541   -1.656865    2.660878
H     -1.079824   -2.782833   -3.714740
H     -0.456511   -1.780129   -5.993843
H      0.811872    0.620494   -5.541294
