36

C     -5.175850   -3.674460    1.481476
C     -4.842392   -4.946212    1.028916
C     -3.597314   -5.167616    0.440375
C     -2.672723   -4.120679    0.303633
C     -2.997741   -2.837394    0.774565
C     -4.261828   -2.627269    1.349735
N     -2.125287   -1.744006    0.635123
C     -0.818269   -1.769798    0.117391
C     -0.075265   -0.575429    0.090660
C      1.218964   -0.528855   -0.447692
C      1.985606    0.716124   -0.461702
C      2.819469    1.249424   -1.430018
C      3.339179    2.483786   -0.951595
C      4.203516    3.453416   -1.473347
N      4.521701    4.554485   -0.747601
C      3.990406    4.696799    0.486948
C      3.126422    3.795858    1.092088
C      2.814435    2.676161    0.324280
N      2.007771    1.596854    0.598122
C      1.765215   -1.697064   -0.983927
C      1.035694   -2.888101   -0.975165
C     -0.254989   -2.933024   -0.431369
S     -1.110420   -4.498433   -0.472419
H     -6.148230   -3.494547    1.932776
H     -5.550468   -5.765014    1.127050
H     -3.352538   -6.165804    0.083830
H     -4.547189   -1.638795    1.700100
H     -2.389951   -0.906935    1.135630
H     -0.527553    0.335020    0.475168
H      3.027099    0.802421   -2.393955
H      4.652301    3.377290   -2.456859
H      4.292086    5.602114    1.008001
H      2.730347    3.959238    2.085306
H      1.517369    1.457646    1.469862
H      2.767133   -1.696379   -1.407255
H      1.484847   -3.783402   -1.399804
