47

C     -4.768125    2.737302    2.874227
N     -4.802200    1.562772    2.151531
C     -3.558757    1.290537    1.620548
C     -2.715101    2.301180    2.014548
C     -1.357065    2.455295    1.712121
C     -0.859004    3.654324    2.289121
C     -1.644921    4.565885    3.081584
C     -3.014840    4.383406    3.378105
C     -3.484699    3.212898    2.798443
C     -0.575179    1.546720    0.907307
C     -0.119150    1.839465   -0.404610
C      0.675650    0.935007   -1.227319
C      1.143286    1.194012   -2.549652
C      0.888772    2.368906   -3.228848
S      1.584038    2.391487   -4.808622
C      2.247419    0.815235   -4.620124
C      1.921615    0.338137   -3.384408
C      2.289825   -0.936315   -2.856798
C      3.030338   -2.003253   -3.382451
C      3.711768   -2.337710   -4.552479
N      4.331732   -3.542273   -4.662456
C      4.282717   -4.413910   -3.627882
C      3.636889   -4.183328   -2.427389
C      3.017457   -2.945611   -2.354320
O      2.317771   -2.489683   -1.272728
C      1.859686   -1.234207   -1.578422
C      1.092043   -0.374488   -0.772636
C      0.635815   -0.631430    0.526294
C      0.841574   -1.757270    1.288123
N      0.219152   -1.558638    2.500837
C     -0.383273   -0.322124    2.528139
C     -0.148525    0.276091    1.312903
H     -5.657754    3.112592    3.360866
H     -5.622592    0.985038    2.023867
H     -3.398391    0.406325    1.018202
H      0.191575    3.904266    2.132683
H     -1.146948    5.452346    3.475808
H     -3.596305    5.073841    3.971042
H     -0.398410    2.809248   -0.815690
H      0.332286    3.237942   -2.908502
H      2.815748    0.373580   -5.423711
H      3.791088   -1.690249   -5.416359
H      4.804665   -5.352325   -3.800037
H      3.613506   -4.897093   -1.617570
H      1.371685   -2.679798    1.095040
H      0.210777   -2.223613    3.263130
H     -0.919864    0.010544    3.406960
