15

C     -2.562590   -0.866025   -2.892193
N     -2.033319   -0.211966   -1.881954
C     -1.165009   -1.046073   -1.199634
C     -0.465558   -0.516643   -0.035797
C     -0.593414    0.791277    0.469640
N      0.170372    0.995056    1.549129
N      0.783722   -0.187098    1.727938
C      0.436306   -1.129783    0.802350
C     -1.052292   -2.324165   -1.709157
S     -2.062225   -2.494993   -3.086102
H     -3.274313   -0.408669   -3.567176
H     -1.209799    1.599411    0.095731
H      1.429270   -0.278331    2.505616
H      0.855817   -2.124326    0.829563
H     -0.446116   -3.144398   -1.354480
