33

Si     0.630225   -1.777882   -0.933758
C      2.398557   -1.186333   -1.288028
C      2.520621    0.144785   -1.083143
C      1.286619    0.819100   -0.642490
C      1.174590    2.176292   -0.371934
C     -0.033008    2.725257    0.039880
N     -0.052349    4.042406    0.279269
C     -1.212829    4.602475    0.680971
C     -2.401637    3.909000    0.867032
C     -3.573712    4.554949    1.287123
C     -4.720569    3.802512    1.451808
N     -4.774043    2.477424    1.229908
C     -3.625340    1.879773    0.824467
C     -2.392751    2.525569    0.618515
C     -1.177409    1.896184    0.190154
C     -1.054195    0.509767   -0.088639
C      0.167143   -0.013076   -0.499400
C      3.473930   -2.019802   -1.715564
C      4.796421   -1.689195   -2.002735
N      5.636069   -2.711693   -2.401800
C      4.958982   -3.833687   -2.422348
S      3.314522   -3.729086   -1.974587
H     -0.078557   -2.252517   -2.150030
H      0.543650   -2.678538    0.244489
H      3.425599    0.723766   -1.215280
H      2.036644    2.829547   -0.479899
H     -1.150659    5.674152    0.855477
H     -3.596608    5.621989    1.482967
H     -5.651635    4.258977    1.775418
H     -3.741684    0.811953    0.664679
H     -1.903471   -0.159910    0.013194
H      5.212019   -0.690827   -1.935666
H      5.411407   -4.774922   -2.706028
