46

C      3.401925   -1.722362    5.600431
C      4.325007   -2.758096    5.041429
C      4.052543   -2.928601    3.740880
C      4.796438   -3.704359    2.791875
C      4.487327   -3.589119    1.490931
C      3.350773   -2.750185    1.025364
C      3.163539   -2.636838   -0.349521
C      2.083471   -1.921831   -0.859897
C      1.089623   -1.373167   -0.031103
C     -0.031409   -0.707106   -0.608045
Si    -0.417164   -0.298463   -2.447793
C     -2.039068    0.492279   -1.930570
C     -2.226927    0.447048   -0.596654
C     -1.135985   -0.210533    0.129603
C     -1.129452   -0.431726    1.515067
N     -2.104815   -0.097741    2.377428
S     -1.638531   -0.663605    3.856886
N     -0.176212   -1.324460    3.476520
C      0.058420   -1.116201    2.168032
C      1.235124   -1.529676    1.400277
C      2.444614   -2.111822    1.924662
C      2.911655   -2.102313    3.340467
C      2.588076   -1.338688    4.399165
C     -2.947658    1.111088   -2.824991
S     -3.291656    0.464388   -4.424622
C     -4.435700    1.701431   -4.827299
C     -4.524394    2.535952   -3.775408
N     -5.312757    3.644840   -3.675810
C     -4.987010    4.093976   -2.397962
C     -4.032126    3.256786   -1.781864
C     -3.727167    2.215983   -2.700781
H      2.770712   -2.133618    6.393352
H      3.962673   -0.864105    5.982353
H      5.129028   -3.220565    5.592213
H      5.620782   -4.322577    3.127518
H      5.056496   -4.138545    0.748128
H      3.864099   -3.094688   -1.044722
H      2.021253   -1.854309   -1.943803
H     -0.571645   -1.549962   -3.233773
H      0.575039    0.665771   -2.988936
H     -3.087538    0.839811   -0.068865
H      1.870395   -0.536656    4.429199
H     -4.950961    1.731790   -5.776711
H     -5.954616    4.019174   -4.363614
H     -5.464768    4.988284   -2.018657
H     -3.620585    3.402486   -0.791831
