48

O      4.840465    1.575244    1.298593
C      3.738715    1.572917    0.753496
C      2.669300    0.635722    1.059207
C      1.489132    0.428437    0.346517
N      0.670894   -0.416322    1.114288
C     -0.723005   -0.546464    0.862811
C     -1.611746   -1.202032    1.904908
C     -1.924517   -2.658891    1.574937
C     -1.245018    0.041629   -0.247898
C     -0.320263    0.646260   -1.243738
C     -0.897687    0.945998   -2.629014
C     -0.937396   -0.297036   -3.513835
C      0.990501    0.888231   -0.939614
C      1.921978    1.492500   -1.996063
C      1.861445    3.017288   -2.041167
C     -2.746916    0.098703   -0.511809
C     -3.346000    1.438474   -0.095942
C      1.466586   -0.987240    2.120351
C      2.676386   -0.288187    2.144524
C      3.634625   -0.599650    3.139395
C      3.397645   -1.622271    4.056724
C      2.219752   -2.345262    3.992634
C      1.248739   -2.043808    3.032322
H      3.523812    2.336192   -0.001379
H     -2.556303   -0.654965    2.009467
H     -1.182448   -1.113208    2.906831
H     -2.461715   -3.124450    2.407464
H     -2.557659   -2.741165    0.685909
H     -1.019862   -3.243114    1.382450
H     -1.892681    1.395744   -2.564491
H     -0.324634    1.710965   -3.158019
H      0.068974   -0.696021   -3.679049
H     -1.363079   -0.047348   -4.491145
H     -1.546719   -1.093741   -3.076563
H      1.710937    1.086018   -2.991668
H      2.952385    1.170380   -1.808660
H      0.897933    3.375065   -2.415713
H      2.008226    3.465639   -1.054428
H      2.638805    3.402168   -2.709077
H     -2.986816   -0.110790   -1.557811
H     -3.284599   -0.690165    0.021351
H     -4.421333    1.448193   -0.301386
H     -3.207953    1.616738    0.975776
H     -2.893302    2.274519   -0.637866
H      4.576883   -0.057164    3.180324
H      4.147027   -1.858959    4.807132
H      2.045195   -3.156093    4.696009
H      0.350931   -2.646680    3.014819
