43

O      1.723321   -0.186056   -0.367977
C      1.475674    0.910825    0.121424
N      0.588350    1.094647    1.158492
C     -0.233017    0.006102    1.647900
C      0.546153   -0.996319    2.502913
O     -0.311540   -2.032439    2.986880
C     -0.509901   -3.131081    2.197192
C     -0.013335   -3.324434    0.905319
C     -0.305032   -4.503260    0.211433
C     -1.090521   -5.480632    0.809737
F     -1.367711   -6.607533    0.141089
C     -1.593322   -5.303029    2.091304
C     -1.302144   -4.126136    2.782814
C      2.195392    2.120243   -0.360076
C      3.584798    1.979327   -0.520720
C      4.361549    3.056018   -0.942902
C      3.755525    4.277094   -1.216388
C      2.371887    4.418131   -1.078411
C      1.559126    3.346091   -0.655565
C      0.101077    3.549241   -0.588747
C     -0.452214    4.511198    0.273817
C     -1.834582    4.698213    0.347989
C     -2.685196    3.929275   -0.442390
C     -2.155438    2.976804   -1.309364
C     -0.773107    2.790665   -1.384356
H      0.402631    2.029463    1.499083
H     -0.699230   -0.488965    0.789255
H     -1.046866    0.444045    2.236537
H      0.925494   -0.471798    3.388660
H      1.438002   -1.396099    2.007400
H      0.598674   -2.581451    0.401658
H      0.077121   -4.659706   -0.792468
H     -2.205428   -6.075970    2.543538
H     -1.693066   -3.981581    3.787102
H      4.062023    1.023452   -0.310950
H      5.435813    2.938993   -1.061953
H      4.355656    5.119248   -1.552897
H      1.919542    5.377106   -1.329106
H      0.194618    5.121335    0.901603
H     -2.246938    5.445400    1.021399
H     -3.761116    4.074265   -0.386256
H     -2.816612    2.377266   -1.930194
H     -0.380496    2.042468   -2.071565
