21

O     -1.181111    1.400515   -0.628103
C     -0.378209    0.487957   -0.480035
N     -0.125877   -0.210326    0.675319
C     -0.745628    0.089510    1.856730
N     -1.653113    0.990356    2.143341
N     -2.011114    0.953650    3.480452
C     -1.350229    0.023399    4.134267
S     -0.248717   -0.878214    3.176030
C      0.366407    0.014604   -1.678518
C     -0.388618   -0.133126   -2.854646
C      0.208198   -0.587157   -4.031228
C      1.566823   -0.889405   -4.046955
C      2.331281   -0.727965   -2.890177
C      1.738699   -0.271490   -1.705241
Br     2.895268   -0.023529   -0.218155
H      0.557386   -0.952227    0.695459
H     -1.492227   -0.156949    5.190412
H     -1.451115    0.109181   -2.853609
H     -0.387481   -0.697677   -4.934654
H      2.035385   -1.237863   -4.964770
H      3.396043   -0.949179   -2.929220
