41

Si     1.747359   -2.826458    3.082646
C      0.207567   -1.857003    2.708008
C      0.124068   -1.502788    1.406140
C     -0.977306   -0.688151    0.824164
C     -2.070361   -0.262839    1.634723
C     -3.158541    0.534400    1.204676
C     -4.247241    0.923939    2.110894
C     -4.917076    2.145985    2.047424
C     -5.927574    2.424656    2.967105
C     -6.247076    1.483681    3.934828
C     -5.531036    0.301913    3.948907
N     -4.542749    0.009295    3.074145
C     -3.108578    0.893280   -0.168536
N     -4.027303    1.621799   -0.830970
S     -3.521749    1.753539   -2.394360
N     -2.114266    0.909300   -2.320516
C     -1.954475    0.448597   -1.065133
C     -0.875118   -0.355302   -0.557593
C      0.253841   -0.827591   -1.400676
N      0.215557   -0.452860   -2.696497
C      1.161342   -0.850165   -3.562223
C      2.211174   -1.677273   -3.160718
C      3.288252   -2.209781   -3.950121
C      4.137054   -3.001644   -3.224407
S      3.654435   -3.107560   -1.604088
C      2.272873   -2.073297   -1.812553
C      1.289346   -1.634182   -0.881006
C      1.266052   -1.967101    0.567903
C      2.193779   -2.642708    1.281711
H      1.462045   -4.232353    3.458855
H      2.677410   -2.094342    3.974369
H     -0.473663   -1.639254    3.513283
H     -2.095934   -0.562412    2.683391
H     -4.662067    2.891932    1.301596
H     -6.458932    3.370629    2.922213
H     -7.030756    1.667242    4.660903
H     -5.738181   -0.468646    4.686217
H      1.046661   -0.498173   -4.582113
H      3.419360   -2.016821   -5.008377
H      5.017316   -3.524840   -3.573081
H      3.126561   -3.071427    0.970207
