47

Si     0.850894    3.896959    0.425948
C     -0.867446    3.258957    0.751966
C     -1.013110    1.992583    0.308746
C     -2.259539    1.239584    0.267743
C     -2.227951    0.039085   -0.350539
C     -1.018615   -0.587399   -0.936634
C      0.214181   -0.026229   -0.717188
C      1.428669   -0.830180   -1.050521
C      2.684943   -0.733311   -0.422197
C      3.031220   -0.064374    0.730341
N      4.371341   -0.283890    0.968296
C      4.883135   -1.147797    0.028210
C      3.849254   -1.470276   -0.812261
C      3.925719   -2.401416   -1.833159
C      2.645155   -2.622829   -2.383586
C      1.443330   -1.914985   -1.989321
C      0.105739   -2.387181   -2.415577
C     -0.140856   -3.397136   -3.277561
Si    -1.963446   -3.761106   -3.401332
C     -2.255310   -2.383058   -2.183425
C     -1.103593   -1.790766   -1.794034
C      0.223283    1.376825   -0.240733
C      1.249107    2.250329   -0.341676
C     -3.565956    1.701238    0.779907
C     -4.183008    2.830632    0.246451
C     -5.425778    3.215525    0.742815
C     -6.018839    2.461627    1.747893
C     -5.344102    1.345379    2.212842
N     -4.140354    0.945894    1.749013
H      1.615015    4.143104    1.673366
H      0.861218    5.008062   -0.556312
H     -1.620292    3.898318    1.183239
H     -3.144765   -0.541440   -0.400250
H      2.457519    0.536027    1.422261
H      4.887850    0.095247    1.751126
H      5.912651   -1.474906    0.077691
H      4.803578   -2.962617   -2.117578
H      2.571592   -3.417254   -3.124131
H      0.563927   -3.997094   -3.827326
H     -2.512296   -3.460397   -4.745818
H     -2.315161   -5.094179   -2.855442
H     -3.264104   -2.118737   -1.914674
H      2.216881    2.075280   -0.783166
H     -3.709571    3.398483   -0.547813
H     -5.926553    4.093307    0.344950
H     -6.985361    2.733647    2.156775
H     -5.766901    0.720968    2.994675
