27

C      0.829838    4.204885   -1.326192
O      0.319035    2.934333   -0.924635
C      0.687639    1.904640   -1.741693
O      1.329511    2.041420   -2.776417
C      0.137078    0.662590   -1.235474
S     -0.484298   -0.449700   -2.368203
C     -1.023581   -1.525739   -1.147409
C     -1.702841   -2.744708   -1.348877
C     -2.055136   -3.518388   -0.243377
C     -1.734940   -3.095419    1.036087
C     -1.060037   -1.885674    1.230049
C     -0.697660   -1.060975    0.130058
C      0.006585    0.210968    0.071225
C      0.563367    0.945278    1.206038
O      1.602979    1.591022    1.142033
O     -0.194828    0.831152    2.334066
C      0.316062    1.552795    3.454889
H      1.923937    4.189209   -1.355301
H      0.515402    4.945368   -0.585534
H      0.418732    4.492059   -2.298953
H     -1.945451   -3.082296   -2.353113
H     -2.578213   -4.460468   -0.389959
H     -2.005860   -3.705526    1.894562
H     -0.817796   -1.585838    2.246952
H      0.361661    2.623863    3.234050
H     -0.367984    1.402068    4.294597
H      1.301814    1.171589    3.739263
