38

C      3.110708   -0.098738   -5.107254
O      1.888734    0.477752   -4.666281
C      1.135013   -0.231513   -3.767918
C      1.510480   -1.463268   -3.217746
C      0.677845   -2.113328   -2.301063
C     -0.533332   -1.527348   -1.926777
S     -1.590992   -2.367446   -0.778002
O     -2.902138   -1.761851   -0.821068
O     -1.397854   -3.787976   -0.966420
N     -0.871814   -1.985733    0.687586
C     -1.184153   -0.706328    1.331405
C     -2.431972   -0.824508    2.226045
C     -1.896987   -0.448451    3.620523
C     -1.543706    1.049278    3.637319
C     -0.271042    1.114673    2.778723
C     -0.074143   -0.349510    2.346178
C     -0.514702   -1.095890    3.608692
C     -0.932554   -0.308552   -2.473811
C     -0.094630    0.336518   -3.385653
Cl    -0.621249    1.855438   -4.025306
H      3.562019    0.587168   -5.830614
H      3.813732   -0.215146   -4.276018
H      2.936958   -1.052325   -5.616587
H      2.445760   -1.947127   -3.481698
H      0.978970   -3.073067   -1.884844
H     -0.687868   -2.803670    1.266954
H     -1.291274    0.081985    0.578999
H     -3.227077   -0.145839    1.899715
H     -2.837969   -1.842917    2.233618
H     -2.554728   -0.752288    4.437120
H     -1.327065    1.388061    4.656670
H     -2.345883    1.674323    3.232434
H     -0.380710    1.796488    1.929561
H      0.574965    1.458323    3.384814
H      0.940000   -0.571770    2.005862
H      0.086744   -0.845198    4.489093
H     -0.547351   -2.183272    3.489151
H     -1.883981    0.138609   -2.195556
