40

C     -2.918278   -5.905847   -3.189137
C     -3.520091   -5.479775   -4.392624
C     -3.367377   -4.073965   -4.456533
C     -3.651716   -3.021858   -5.250464
S     -3.028667   -1.595359   -4.473228
C     -2.424278   -2.473201   -3.105648
C     -1.760401   -1.832016   -1.986243
C     -2.251764   -1.960569   -0.686251
N     -1.673721   -1.418132    0.411220
C     -0.553607   -0.689068    0.195006
C      0.079340   -0.102671    1.288707
O     -0.291571   -0.165765    2.612311
C      0.631157    0.562018    3.317239
C      0.649463    0.774777    4.715031
C      1.678006    1.555867    5.294825
C      2.585784    2.037068    4.354183
C      3.683083    2.820644    4.622318
N      4.319924    3.080532    3.415880
C      3.646353    2.473423    2.373473
C      2.594969    1.844133    2.964200
C      1.553350    1.059069    2.417791
C      1.238630    0.660339    1.125604
N      1.825036    0.884496   -0.079215
C      1.191713    0.304808   -1.126457
C      0.030019   -0.474745   -1.060056
C     -0.600094   -1.068534   -2.166919
C     -2.696995   -3.784693   -3.288232
N     -2.382938   -4.836271   -2.472895
H     -2.825265   -6.905133   -2.782687
H     -3.998048   -6.127534   -5.115694
H     -4.158265   -2.973365   -6.203434
H     -3.162032   -2.520356   -0.481803
H     -0.126400    0.337803    5.336413
H      1.733905    1.746679    6.358331
H      4.081513    3.223566    5.543557
H      5.158964    3.636688    3.314989
H      3.983167    2.555846    1.348921
H      1.671451    0.492793   -2.085727
H     -0.182428   -0.941701   -3.163620
H     -1.884082   -4.818802   -1.591155
