44

Si    -5.613844   -2.708861    0.800473
C     -5.362996   -3.641140    2.404167
C     -4.112612   -3.460699    2.867852
C     -3.585439   -4.033947    4.088741
C     -2.313886   -3.761516    4.434801
C     -1.451263   -2.910463    3.616617
C     -1.860161   -2.341047    2.456092
C     -0.912557   -1.530945    1.754989
C     -0.499911   -0.241752    2.039674
C      0.445928    0.183914    1.094862
C      1.085802    1.446724    1.065140
C      0.936989    2.498064    1.912623
O      1.765307    3.490327    1.472330
C      2.409679    3.020958    0.353470
C      2.018496    1.732820    0.049253
C      2.448888    0.893359   -1.027637
C      1.763772   -0.362125   -0.936326
C      2.057309   -1.314627   -1.909753
N      2.932684   -1.139049   -2.922395
C      3.578167    0.028139   -3.017617
C      4.466740    0.156279   -4.076230
C      5.202468    1.319108   -4.289610
C      5.046650    2.384078   -3.421450
C      4.157248    2.275501   -2.349547
C      3.396401    1.100896   -2.111632
C      0.799044   -0.697473    0.089765
S     -0.118157   -2.150263    0.353757
C     -3.243860   -2.596067    2.031607
C     -3.846378   -2.109578    0.926851
H     -6.596197   -1.606739    0.939070
H     -5.826372   -3.616584   -0.352390
H     -6.152147   -4.225073    2.849628
H     -4.216233   -4.668184    4.701018
H     -1.888423   -4.177044    5.343226
H     -0.440318   -2.764060    3.989623
H     -0.879081    0.329942    2.877614
H      0.354689    2.718549    2.795366
H      3.089892    3.743187   -0.066710
H      1.587300   -2.294754   -1.921295
H      4.590121   -0.681424   -4.759882
H      5.889248    1.384496   -5.128791
H      5.612371    3.300232   -3.571415
H      4.078192    3.139240   -1.705589
H     -3.421119   -1.461907    0.176966
