35

O      1.561705   -2.292429   -1.013170
C      1.534982   -1.160971   -0.544141
C      1.162574   -0.931417    0.863681
C      0.766509   -2.005298    1.675345
C      0.423326   -1.769713    3.005150
O      0.018564   -2.710988    3.915868
C     -0.061553   -4.054396    3.449984
C      0.485853   -0.458449    3.497734
O      0.155390   -0.198820    4.800372
C      0.879062    0.609035    2.698232
C      1.219003    0.366746    1.370915
O      1.605895    1.443248    0.614231
C      1.908898    1.217743   -0.705997
C      1.885617    0.038162   -1.342610
C      2.241324   -0.141600   -2.788894
C      1.036499   -0.102505   -3.701406
C      0.602904    1.108522   -4.260556
C     -0.520988    1.144162   -5.087886
C     -1.225007   -0.027147   -5.360570
C     -0.807491   -1.234916   -4.805235
C      0.316140   -1.272938   -3.978390
H      0.737415   -3.000159    1.242181
H      0.920718   -4.421352    3.134591
H     -0.798228   -4.149422    2.645441
H     -0.397569   -4.677063    4.284689
H     -0.088944   -1.065534    5.180614
H      0.918140    1.613236    3.108486
H      2.169071    2.152604   -1.187084
H      2.791402   -1.079162   -2.940924
H      2.946283    0.641330   -3.100821
H      1.137956    2.032845   -4.056402
H     -0.848761    2.086531   -5.518812
H     -2.100577    0.001138   -6.003579
H     -1.357694   -2.148982   -5.012440
H      0.625824   -2.222910   -3.545213
