42

C     -0.311611   -4.787910    0.065664
C      0.610765   -5.853810   -0.018030
C      1.889748   -5.280784   -0.224015
C      3.182362   -5.623591   -0.392879
S      4.092058   -4.153170   -0.586663
C      2.695764   -3.132724   -0.431563
C      2.712594   -1.702033   -0.494242
C      3.772392   -0.838901   -0.705064
C      3.253541    0.479198   -0.675605
C      1.893214    0.381710   -0.446561
O      1.577040   -0.948336   -0.338481
C      0.911525    1.420189   -0.327070
S     -0.765426    1.058417   -0.031109
C     -1.254035    2.724335   -0.008742
C     -2.629510    3.122436    0.251086
C     -3.407448    2.542908    1.284016
C     -4.751732    2.894521    1.552913
C     -5.450828    3.859121    0.813028
C     -4.733950    4.480921   -0.235739
N     -5.223004    5.425265   -1.053484
S     -4.006703    5.809801   -2.111293
N     -2.791899    4.828047   -1.556637
C     -3.292723    4.115268   -0.530065
C     -0.154050    3.477662   -0.240565
N     -0.072583    4.840415   -0.320046
C      1.287207    5.027935   -0.544472
C      1.976433    3.799777   -0.599636
C      1.019645    2.766888   -0.400941
C      1.619561   -3.930812   -0.244446
N      0.316623   -3.552883   -0.077302
H     -1.383050   -4.813916    0.217278
H      0.360983   -6.903352    0.062497
H      3.657921   -6.593073   -0.418691
H      4.803396   -1.123883   -0.863655
H      3.815086    1.392353   -0.807548
H     -2.953758    1.782760    1.923086
H     -5.266761    2.390782    2.371885
H     -6.481009    4.117968    1.026958
H     -0.836652    5.505584   -0.278093
H      1.663773    6.036104   -0.661512
H      3.039257    3.697850   -0.769996
H     -0.046849   -2.604857   -0.068935
