46

C     -0.912759   -0.336553    6.318039
C     -2.032783   -1.127343    6.649749
C     -2.722295   -1.393932    5.442769
C     -3.814646   -2.035245    4.984434
S     -3.875199   -1.796417    3.266008
C     -2.416031   -0.844718    3.225053
C     -1.866615   -0.302022    2.016890
S     -0.146656   -0.142004    1.740173
C     -0.341104    0.513264    0.156836
C      0.778920    0.899991   -0.690225
C      1.383722    2.137745   -0.434419
C      2.440900    2.581558   -1.218725
C      2.914281    1.800713   -2.281822
C      4.041566    2.323263   -3.054467
C      5.384334    2.003829   -2.988202
N      6.207547    2.679548   -3.869692
C      5.480630    3.506699   -4.588190
S      3.797254    3.522307   -4.258542
C      2.320413    0.538888   -2.567275
C      2.755413   -0.287089   -3.634065
C      2.169472   -1.524306   -3.900624
C      1.129115   -1.974705   -3.106738
C      0.673994   -1.183984   -2.052276
C      1.242526    0.080801   -1.758227
C     -1.659855    0.595493   -0.113065
N     -2.247316    1.059539   -1.255711
C     -3.596078    0.901073   -0.950787
C     -3.776478    0.357230    0.338958
C     -2.484873    0.149336    0.897378
C     -1.957409   -0.746617    4.496615
N     -0.851297   -0.082193    4.949940
H     -0.142719    0.070920    6.960592
H     -2.294413   -1.453345    7.647657
H     -4.567545   -2.607737    5.506051
H      1.028895    2.765542    0.381062
H      2.897933    3.544073   -0.995492
H      5.818763    1.276978   -2.311838
H      5.913447    4.145273   -5.347220
H      3.569255    0.028375   -4.284821
H      2.531374   -2.131791   -4.726102
H      0.668859   -2.940066   -3.301037
H     -0.141758   -1.579640   -1.448841
H     -1.790585    1.412456   -2.088964
H     -4.337155    1.191338   -1.684750
H     -4.734384    0.147421    0.796726
H     -0.179825    0.441366    4.400363
