22

C     -2.473902   -0.096945    4.062737
C     -3.181506   -1.257861    3.842845
N     -3.118752   -1.914693    2.674711
N     -2.327812   -1.420618    1.664481
C     -1.607888   -0.282813    1.820496
C     -0.794816    0.140601    0.649866
C      0.008831    1.304244    0.658256
C      0.782590    1.716077   -0.441834
C      0.724778    0.909395   -1.573184
N      1.313090    0.969892   -2.804701
N      0.946747   -0.058049   -3.586595
N      0.111003   -0.812860   -2.883279
C     -0.041164   -0.242155   -1.647654
C     -0.804456   -0.632240   -0.537139
C     -1.674126    0.397827    3.033623
H     -2.539284    0.417813    5.014671
H     -3.821753   -1.698059    4.597702
H      0.056757    1.937811    1.541232
H      1.388139    2.615116   -0.400679
H      1.955441    1.658544   -3.175637
H     -1.398549   -1.538983   -0.616102
H     -1.119257    1.310822    3.210160
