20

C     -1.939052   -3.633715   -1.317542
C     -1.284253   -2.300325   -1.195087
C     -1.873881   -1.105854   -1.529753
C     -0.932408   -0.033806   -1.274491
C     -0.843603    1.299838   -1.365858
C      0.442616    1.908892   -0.936974
C      1.494819    1.178466   -0.471038
C      1.359912   -0.235720   -0.389529
C      1.993021   -1.416692   -0.039688
N      1.155764   -2.538481   -0.250922
C      0.042226   -2.024080   -0.719822
N      0.160400   -0.689841   -0.800175
H     -1.992973   -4.122097   -0.339392
H     -2.957639   -3.550162   -1.710208
H     -1.367767   -4.277160   -1.994165
H     -2.870472   -0.968390   -1.919141
H     -1.645244    1.930847   -1.727814
H      0.517124    2.990677   -1.010149
H      2.421263    1.653456   -0.165523
H      2.993518   -1.550445    0.350855
