45

C      5.509863    3.317004    1.634523
C      4.073843    3.074756    1.197439
C      3.084142    2.992909    2.362135
C      3.359126    1.896548    3.399502
C      3.415968    0.476342    2.838231
C      2.080036   -0.029105    2.330258
O      0.999045    0.510006    2.555173
N      2.186511   -1.206410    1.611001
N      1.039943   -1.611685    0.897621
C      1.236188   -1.991699   -0.418379
O      2.358258   -2.152770   -0.894189
C      0.015526   -2.162074   -1.254077
C     -1.244668   -2.405729   -0.697506
C     -2.360453   -2.560123   -1.529473
C     -2.243889   -2.480940   -2.927333
C     -3.420658   -2.642250   -3.796867
C     -4.246952   -3.774010   -3.695192
C     -5.364262   -3.927323   -4.520669
C     -5.674943   -2.949640   -5.462187
C     -4.869421   -1.819958   -5.579520
C     -3.751793   -1.668626   -4.754145
C     -0.970055   -2.249101   -3.470354
C      0.149028   -2.095892   -2.645071
H      6.149068    3.465509    0.758246
H      5.584025    4.210128    2.262898
H      5.908046    2.465327    2.193776
H      3.766012    3.899606    0.543207
H      4.023449    2.165832    0.588212
H      2.076982    2.861969    1.949552
H      3.072972    3.959119    2.882508
H      2.582088    1.952374    4.172359
H      4.306578    2.110902    3.907886
H      3.727985   -0.203928    3.640343
H      4.163526    0.401556    2.042092
H      3.069206   -1.452008    1.160349
H      0.179816   -1.141701    1.180678
H     -1.383585   -2.500352    0.375725
H     -3.333914   -2.738952   -1.075048
H     -4.016331   -4.556426   -2.974948
H     -5.988735   -4.812192   -4.429039
H     -6.543750   -3.068213   -6.104313
H     -5.110369   -1.053606   -6.311652
H     -3.142537   -0.772697   -4.855957
H     -0.836645   -2.199912   -4.549793
H      1.125128   -1.924406   -3.095301
