33

N     -0.158702   -2.390103    0.560932
C     -0.615041   -1.223288    0.031018
C     -0.106989    0.062947    0.151853
C      1.069966    0.392852    0.940795
C      1.092709    0.140354    2.317590
C      2.220252    0.461891    3.082410
C      3.335106    1.041137    2.476488
O      4.496054    1.400427    3.103284
C      4.548998    1.217753    4.512447
C      3.311276    1.293778    1.102483
C      2.186837    0.975160    0.335797
C     -0.924607    0.919283   -0.638632
C     -0.773186    2.329543   -0.823515
N     -0.658110    3.472267   -0.993187
C     -1.922441    0.149538   -1.202776
C     -3.026092    0.423284   -2.068214
C     -3.855142   -0.574126   -2.428603
C     -3.660178   -1.932267   -1.955798
C     -2.620165   -2.196487   -1.148206
N     -1.747562   -1.166710   -0.775669
H     -0.391058   -3.277489    0.123078
H      0.788459   -2.401977    0.938947
H      0.228417   -0.306114    2.805901
H      2.191708    0.248343    4.145485
H      4.469423    0.157811    4.775443
H      3.778791    1.810064    5.017568
H      5.523709    1.574195    4.859330
H      4.176524    1.746767    0.624049
H      2.200633    1.181357   -0.731677
H     -3.191967    1.434432   -2.429822
H     -4.699355   -0.382415   -3.084405
H     -4.360284   -2.702028   -2.261059
H     -2.427559   -3.185336   -0.756355
