41

C     -0.238872   -3.315696    3.860972
C     -0.596315   -2.267139    2.869205
C     -0.398192   -2.262435    1.502170
C     -0.905454   -1.044544    0.980429
C     -0.977909   -0.495879   -0.314973
C     -1.555973    0.771081   -0.511636
C     -1.604744    1.363981   -1.896749
N     -0.319640    1.921444   -2.254670
C      0.552615    1.252879   -3.086254
O      0.260102    0.229051   -3.692957
C      1.899744    1.947624   -3.201088
C      2.963709    1.107878   -3.924388
C      3.440914   -0.056806   -3.052681
C      4.155572    1.987334   -4.307517
C     -2.045861    1.482436    0.589060
C     -1.985762    0.954802    1.884166
C     -1.410135   -0.314140    2.055809
N     -1.215151   -1.079123    3.192883
C     -1.617681   -0.655071    4.517500
H      0.448630   -2.918464    4.614567
H      0.254495   -4.162792    3.372739
H     -1.134514   -3.695250    4.363042
H      0.065717   -3.056657    0.931460
H     -0.582248   -1.054226   -1.161094
H     -2.333163    2.181286   -1.937850
H     -1.924087    0.607666   -2.622321
H      0.043497    2.655033   -1.662190
H      2.250428    2.217674   -2.197389
H      1.724314    2.878682   -3.754864
H      2.539352    0.694812   -4.848040
H      2.615808   -0.727802   -2.794756
H      4.195814   -0.649968   -3.580025
H      3.887497    0.302707   -2.119240
H      4.623116    2.431789   -3.422204
H      4.916519    1.403125   -4.835838
H      3.841618    2.801013   -4.969877
H     -2.488056    2.467000    0.449303
H     -2.375146    1.518883    2.725374
H     -1.395518   -1.429309    5.253965
H     -1.067164    0.256084    4.767532
H     -2.694494   -0.464411    4.505589
