30

C     -1.244582   -2.382737    2.421000
S     -2.643435   -2.581857    1.341169
O     -3.721573   -1.737779    1.802283
O     -2.828109   -3.998406    1.114126
N     -2.052816   -1.976787   -0.111110
C     -2.515981   -0.654095   -0.574503
C     -1.818248    0.510109    0.138692
C     -0.310304    0.563049   -0.028658
C      0.514456    0.674428    1.030092
C      2.011812    0.721333    0.927474
C      2.534927    0.335656   -0.455453
C      1.689507    0.968355   -1.553858
C      0.226238    0.531919   -1.442389
H     -0.371577   -2.852524    1.964543
H     -1.077501   -1.321605    2.600151
H     -1.478824   -2.879635    3.365233
H     -2.068636   -2.710055   -0.822418
H     -3.603714   -0.576351   -0.468573
H     -2.326810   -0.598848   -1.653281
H     -2.080476    0.491035    1.203312
H     -2.230496    1.447633   -0.256216
H      0.106456    0.746399    2.035602
H      2.341599    1.736899    1.177163
H      2.448584    0.049359    1.674964
H      3.580631    0.647488   -0.555487
H      2.516190   -0.756255   -0.565014
H      1.754424    2.061535   -1.480982
H      2.082333    0.691193   -2.538634
H     -0.378210    1.183923   -2.084116
H      0.129108   -0.488787   -1.832019
