37

C      2.389859   -3.853934    4.592355
C      2.433599   -4.414463    3.323550
C      1.989657   -3.680607    2.218429
C      1.486469   -2.360477    2.344371
C      1.454411   -1.817942    3.645812
C      1.902304   -2.560497    4.754395
C      0.965758   -0.525976    3.795113
N      0.518592    0.249695    2.785492
C      0.543843   -0.255506    1.546440
C      0.079671    0.555130    0.517014
C      0.054932    0.146894   -0.826139
C     -0.444759    1.037381   -1.883386
C      0.277295    1.279156   -3.048559
N     -0.133909    2.082588   -4.057281
C     -1.326211    2.692328   -3.911150
C     -1.799458    3.529143   -4.909549
C     -3.029076    4.170959   -4.783269
C     -3.760573    3.946907   -3.633986
N     -3.346374    3.142299   -2.633268
C     -2.150716    2.532438   -2.778020
C     -1.678584    1.694375   -1.777799
C      0.520803   -1.136564   -1.117291
C      0.991660   -1.971397   -0.099703
C      1.016032   -1.554391    1.252920
H      2.733723   -4.420814    5.453485
H      2.812673   -5.424294    3.187028
H      2.044989   -4.165386    1.247602
H      1.872725   -2.131473    5.754042
H      0.915739   -0.052472    4.772733
H     -0.266790    1.553656    0.782472
H      1.252281    0.824828   -3.210783
H     -1.196826    3.682473   -5.800690
H     -3.400698    4.826303   -5.562644
H     -4.726299    4.420294   -3.480268
H     -2.302931    1.547103   -0.898823
H      0.509889   -1.512744   -2.138908
H      1.337186   -2.960948   -0.385406
