40

C     -3.161298   -5.491049    2.911384
C     -2.864095   -5.407557    4.249319
S     -1.979285   -3.997944    4.616511
C     -1.971313   -3.458791    2.980251
C     -2.649727   -4.374766    2.185329
C     -1.330765   -2.218018    2.559876
S     -1.367217   -1.748134    0.900455
C     -0.477992   -0.285337    1.125662
C     -0.183501    0.595834   -0.035455
C     -0.593635    0.307338   -1.342943
C     -0.294833    1.166674   -2.412865
C      0.421707    2.330161   -2.183065
N      0.830141    2.633100   -0.929780
C      0.528093    1.783990    0.090786
C      0.801316    3.315021   -3.209529
S      1.716484    4.752891   -2.767471
C      1.775641    5.371832   -4.377110
C      1.123256    4.498494   -5.164593
C      0.779634    4.342022   -6.524769
C      0.062787    3.136752   -6.624803
N     -0.068797    2.511559   -5.384955
C      0.588832    3.379608   -4.553020
C     -0.158050   -0.163826    2.467525
N      0.547050    0.890137    2.976078
C      0.732738    0.780809    4.315049
C      0.269060   -0.271813    5.100485
N     -0.432207   -1.333136    4.635394
C     -0.642730   -1.263604    3.286782
H     -3.717373   -6.309849    2.471643
H     -3.123582   -6.106878    5.032173
H     -2.784410   -4.264043    1.116366
H     -1.157809   -0.592037   -1.575793
H     -0.643618    0.878177   -3.390529
H      0.908867    2.135461    1.044064
H      2.270520    6.302165   -4.614041
H      1.010742    5.005229   -7.347793
H     -0.372702    2.664841   -7.496436
H     -0.532370    1.643048   -5.172054
H      1.289417    1.596274    4.768452
H      0.461109   -0.283517    6.169587
