44

C      5.306423   -0.842156    0.316191
N      3.867820   -0.802632    0.557607
C      3.341458   -1.108267    1.823819
C      4.090166   -1.592362    2.906815
C      3.491566   -1.858000    4.145240
C      2.127803   -1.650987    4.325775
C      1.358291   -1.190634    3.263138
C      1.959789   -0.935121    2.027284
O      1.109664   -0.503833    1.031362
C      1.617328   -0.383595   -0.248703
C      0.681585   -0.114264   -1.271258
C     -0.752478    0.006236   -0.998974
C     -1.597886   -1.103130   -1.044746
C     -2.963879   -0.947996   -0.802894
C     -3.478565    0.319112   -0.512565
C     -4.923904    0.544468   -0.263133
C     -5.442647    1.810097    0.022052
C     -6.810041    1.961831    0.244290
C     -7.637165    0.850101    0.173335
C     -7.059046   -0.371158   -0.119214
N     -5.736487   -0.548524   -0.336271
N     -2.667047    1.411859   -0.457782
C     -1.343289    1.228519   -0.695716
C      1.148007    0.015739   -2.584411
C      2.502966   -0.126068   -2.872388
C      3.414933   -0.397202   -1.849436
C      2.997296   -0.523151   -0.515180
H      5.593227   -1.793466   -0.143104
H      5.902732   -0.701388    1.223724
H      5.625247   -0.022091   -0.340813
H      5.152245   -1.792561    2.819574
H      4.096089   -2.232738    4.965490
H      1.664573   -1.854114    5.286154
H      0.290271   -1.034552    3.386711
H     -1.201759   -2.087836   -1.265964
H     -3.620036   -1.812340   -0.847451
H     -4.787971    2.673161    0.070871
H     -7.217667    2.943136    0.475046
H     -8.704906    0.933171    0.338051
H     -7.663253   -1.271098   -0.197640
H     -0.748087    2.136136   -0.640912
H      0.449992    0.217664   -3.394724
H      2.850852   -0.037157   -3.900696
H      4.456128   -0.521878   -2.130659
