29

N     -1.985024    2.451425    1.876855
C     -2.063358    2.391739    0.719618
C     -2.214363    2.364531   -0.709673
C     -3.383994    2.928940   -1.249126
C     -3.582194    2.973977   -2.628523
C     -2.612744    2.459063   -3.481777
C     -1.447425    1.895816   -2.955903
C     -1.230473    1.832986   -1.566444
C      0.006697    1.224862   -1.084972
C      1.313298    1.218939   -1.537497
C      2.056313    0.412048   -0.636804
C      3.390314    0.005740   -0.506482
C      3.728548   -0.819696    0.560863
O      4.969432   -1.305102    0.836575
C      4.855009   -2.060103    1.961205
C      3.554351   -2.067728    2.412511
C      2.812118   -1.264517    1.508501
C      1.478164   -0.858691    1.376590
C      1.140801   -0.034792    0.308421
O     -0.099590    0.445591    0.030353
H     -4.146825    3.343144   -0.590793
H     -4.490624    3.412368   -3.035180
H     -2.762757    2.490631   -4.558630
H     -0.711184    1.488365   -3.646895
H      1.689188    1.741307   -2.405694
H      4.149264    0.322592   -1.213936
H      5.770712   -2.517228    2.309654
H      3.186741   -2.587252    3.285818
H      0.719651   -1.171393    2.086884
