47

C      5.000315    2.352969   -0.942018
C      5.978763    3.488221   -0.818246
C      5.348817    4.588024   -0.379246
C      3.952843    4.294836   -0.178314
C      3.722847    3.012450   -0.503370
C      2.446847    2.301799   -0.424990
C      2.277837    1.446599    0.671886
C      1.093204    0.731957    0.856745
C      0.937007   -0.117557    1.958902
N     -0.150656   -0.860693    2.252768
C     -1.166607   -0.736376    1.362302
C     -1.094362    0.086647    0.241194
O     -2.266318   -0.003658   -0.453481
C     -3.075415   -0.869759    0.211551
C     -4.360322   -1.218793   -0.193988
C     -5.050708   -2.127191    0.614535
C     -4.477627   -2.662439    1.779259
C     -5.181057   -3.573343    2.582273
C     -4.604705   -4.102145    3.740261
C     -3.316045   -3.730039    4.115732
C     -2.594686   -2.826514    3.335791
C     -3.163401   -2.284934    2.164921
C     -2.448977   -1.360552    1.350422
C      0.044844    0.875521   -0.082220
C      0.192276    1.749272   -1.222533
C     -0.811039    1.944236   -2.206661
C     -0.636258    2.791440   -3.302471
C      0.554653    3.475904   -3.455309
C      1.563435    3.311645   -2.509177
C      1.412925    2.463557   -1.383846
H      4.939025    2.002733   -1.977081
H      5.281175    1.524937   -0.283936
H      7.030232    3.416519   -1.052022
H      5.798130    5.552574   -0.196715
H      3.227026    5.008970    0.181115
H      3.086434    1.349732    1.396115
H      1.741927   -0.228644    2.684584
H     -4.800018   -0.804099   -1.093230
H     -6.058179   -2.417794    0.320743
H     -6.189056   -3.881268    2.312723
H     -5.164424   -4.806628    4.350403
H     -2.870188   -4.142815    5.017001
H     -1.589849   -2.548163    3.645585
H     -1.765663    1.431118   -2.140428
H     -1.433948    2.908355   -4.031156
H      0.704966    4.135857   -4.305089
H      2.488987    3.862930   -2.665495
