30

O      0.215326   -3.142876    2.039947
C      0.922311   -2.733092    1.133135
C      0.643941   -1.477836    0.383680
C      1.476192   -1.014293   -0.640652
C      1.167520    0.172455   -1.311601
C     -0.498389   -0.741722    0.727990
C     -0.812754    0.450613    0.056054
C     -1.997983    1.161806    0.448385
N     -2.950938    1.717261    0.811810
C      0.024991    0.916461   -0.973478
C     -0.237529    2.156511   -1.715128
C     -0.029914    3.380322   -1.158620
N     -0.385304    4.249169   -2.135338
C     -0.524721    5.582013   -2.449113
C     -1.043456    5.676046   -3.815583
C     -1.206337    4.304226   -4.294552
N     -0.807114    3.468131   -3.285902
N     -0.706946    2.046477   -3.010867
O      2.046933   -3.331441    0.669074
C      2.376025   -4.547875    1.341821
H      2.368216   -1.563622   -0.932495
H      1.823677    0.518806   -2.109219
H     -1.150614   -1.101243    1.524489
H      0.320255    3.675048   -0.183027
H     -0.276224    6.350497   -1.736818
H     -1.267558    6.581603   -4.357221
H     -1.562564    3.904989   -5.225547
H      2.564558   -4.359838    2.403468
H      1.577352   -5.285226    1.213553
H      3.290208   -4.946202    0.893114
