32

C     -0.267652   -0.502931   -4.036095
C      0.061669    0.314924   -5.266807
C      0.735244    1.440463   -4.972349
C      0.914735    1.475291   -3.531914
N      1.549255    2.460600   -2.868924
C      1.604314    2.294965   -1.521334
C      1.052534    1.199552   -0.872219
C      1.007495    0.846370    0.535312
C      0.354329   -0.327901    0.674858
C     -0.096927   -0.853794   -0.693519
C      0.406105    0.207771   -1.609183
C      0.332439    0.343004   -2.968439
C      0.149214   -0.938511    1.959901
S     -0.711928   -2.456043    2.021424
C     -0.595776   -2.586013    3.719505
C      0.073700   -1.520562    4.254118
N      0.295599   -1.395261    5.592138
C      0.979938   -0.252297    5.861961
C      1.402978    0.674838    4.904595
N      1.192936    0.570674    3.564811
C      0.505147   -0.569872    3.251941
H     -1.349784   -0.599894   -3.911385
H      0.207457   -1.486774   -4.083992
H     -0.219744    0.015430   -6.266571
H      1.095731    2.203608   -5.640440
H      2.113190    3.082336   -0.975199
H      1.445538    1.466473    1.301225
H      0.372101   -1.816543   -0.919664
H     -1.187631   -0.928185   -0.746815
H     -1.019509   -3.429826    4.244276
H      1.193425   -0.085711    6.914090
H      1.946348    1.564069    5.212178
