38

C     -0.502193    3.975297   -1.518621
C     -0.204371    2.590800   -1.495301
C     -0.488293    2.114139   -0.229733
N     -0.954606    3.188005    0.496806
C     -0.966522    4.333866   -0.266682
C     -1.400177    5.607456    0.239352
C     -1.828054    5.937105    1.514946
N     -2.193263    7.255121    1.721041
C     -2.036595    7.920007    0.599072
S     -1.457432    7.023003   -0.738955
C     -0.376008    0.785363    0.334853
C     -1.389098    0.141870    1.082146
C     -1.262566   -1.183816    1.634396
C     -0.112727   -2.019266    1.507962
C      0.016536   -3.360411    2.073717
C     -0.493148   -3.687137    3.331020
C     -0.354187   -4.989215    3.808653
C      0.285686   -5.936786    3.022391
C      0.764062   -5.539062    1.787608
N      0.644793   -4.282973    1.303238
C      0.870636   -1.352086    0.763305
C      2.130838   -1.786461    0.435522
O      2.790647   -0.820401   -0.270770
C      1.944593    0.244646   -0.398576
C      0.748457   -0.033493    0.212793
H     -0.386846    4.634505   -2.369765
H      0.168810    2.001394   -2.323779
H     -1.228484    3.134408    1.467166
H     -1.897577    5.253606    2.351423
H     -2.259268    8.975880    0.517733
H     -2.338095    0.656755    1.235287
H     -2.131039   -1.574332    2.168308
H     -0.983441   -2.940102    3.946675
H     -0.741630   -5.258222    4.787161
H      0.410086   -6.958548    3.362462
H      1.272347   -6.239946    1.131467
H      2.690632   -2.694064    0.613729
H      2.348949    1.093180   -0.931649
