32

O     -1.082056   -0.402631    0.267223
C      0.034888   -0.298486   -0.226963
C      1.045428   -1.351183   -0.016590
C      0.738994   -2.495752    0.729748
C      1.709802   -3.481644    0.918988
C      2.974475   -3.310898    0.360577
O      3.951559   -4.247903    0.520659
C      3.284415   -2.175052   -0.381590
C      2.313530   -1.192529   -0.569777
O      2.667795   -0.092614   -1.306674
C      1.713837    0.875509   -1.507720
C      0.449027    0.870256   -1.056190
C     -0.459840    1.996821   -1.349552
C     -0.597322    2.487973   -2.657317
C     -1.447401    3.560527   -2.926896
C     -2.174413    4.146765   -1.892696
C     -2.066898    3.664037   -0.587530
O     -2.840817    4.320957    0.330080
C     -2.897095    3.760459    1.636490
C     -1.206872    2.595419   -0.320429
H     -0.252370   -2.619255    1.161108
H      1.462687   -4.365967    1.498681
H      3.601590   -4.982023    1.052500
H      4.275998   -2.058631   -0.809261
H      2.142515    1.678130   -2.096678
H     -0.051995    2.034643   -3.482218
H     -1.549036    3.935835   -3.941700
H     -2.839638    4.980280   -2.104821
H     -1.924723    3.829682    2.134938
H     -3.612200    4.347512    2.220840
H     -3.257407    2.726523    1.611077
H     -1.102773    2.208898    0.689006
