23

C      2.621897    4.266466   -0.329728
C      1.306455    4.275038   -0.742868
C      0.834987    2.959475   -0.555903
N     -0.378119    2.388468   -0.789782
C     -0.456845    1.067477   -0.478732
C     -1.523442    0.145890   -0.577782
C     -1.054302   -1.072751   -0.121597
C     -1.851898   -2.391741   -0.035645
C     -3.188989   -2.647396   -0.388401
N     -3.527480   -3.921590   -0.170400
O     -2.384640   -4.520900    0.338921
C     -1.389248   -3.599474    0.415764
N      0.260328   -0.913014    0.248504
C      0.637812    0.381915    0.037418
N      1.850926    0.915298    0.280876
C      1.901372    2.225860   -0.036356
O      2.992663    3.027651    0.100888
H      3.394169    5.022234   -0.280512
H      0.756442    5.119744   -1.129307
H     -2.517218    0.363562   -0.943566
H     -3.931699   -1.974091   -0.791483
H     -0.451190   -3.967080    0.802223
H      0.872222   -1.624214    0.620388
