39

O     -1.786542   -3.044253    0.823045
C     -1.680669   -1.861850    1.143058
N     -0.884207   -0.871476    0.554495
C     -0.039084   -1.086168   -0.593284
C      0.781820   -0.056041   -1.073885
C      1.619531   -0.230159   -2.190898
C      1.695396   -1.442095   -2.889733
N      2.516603   -1.609897   -4.010398
C      3.600387   -0.655500   -4.237277
C      2.749522   -2.960140   -4.520191
C      0.854989   -2.458515   -2.413468
C      0.014667   -2.291427   -1.294287
N     -0.829678    0.425336    1.044600
C     -1.544997    0.743801    2.075352
C     -1.474260    2.138939    2.593544
C     -1.304569    3.186322    1.676336
C     -1.226943    4.507328    2.121026
C     -1.309084    4.787009    3.484492
C     -1.461474    3.743933    4.397108
Cl    -1.547519    4.091695    6.080651
C     -1.540895    2.420562    3.962731
C     -2.458253   -0.181802    2.766739
C     -2.501738   -1.426966    2.297495
H      0.793367    0.916149   -0.587673
H      2.209206    0.629362   -2.493349
H      3.210987    0.352645   -4.414993
H      4.294907   -0.638703   -3.389981
H      4.177625   -0.915058   -5.132034
H      3.402477   -2.944284   -5.400232
H      1.815198   -3.426824   -4.850207
H      3.229881   -3.589853   -3.763227
H      0.818932   -3.428586   -2.900179
H     -0.592816   -3.146304   -1.018595
H     -1.236536    2.977285    0.609830
H     -1.099507    5.315549    1.404584
H     -1.246025    5.816273    3.828903
H     -1.627438    1.625496    4.697041
H     -3.080190    0.140421    3.589536
H     -3.146937   -2.181761    2.729739
