38

C     -2.015592   -2.614640    6.113951
C     -2.131708   -3.858475    5.506165
N     -1.731299   -4.164693    4.250857
C     -1.185059   -3.116188    3.607569
N     -0.702651   -3.161699    2.331016
C     -0.209951   -1.931753    1.958059
C      0.375269   -1.518396    0.751156
C      0.803000   -0.183862    0.621944
C      1.420598    0.268592   -0.639887
C      1.682626   -0.420406   -1.817464
C      2.293838    0.461109   -2.750053
C      2.766774    0.325911   -4.067443
C      3.334668    1.421341   -4.732442
C      3.899359    1.661936   -6.012369
C      4.279444    2.985207   -6.027245
O      3.988037    3.582095   -4.841099
C      3.414257    2.631147   -4.055609
C      2.958767    2.801526   -2.757538
C      2.398598    1.696586   -2.119388
N      1.869979    1.556468   -0.859189
C      0.627168    0.685484    1.709123
C      0.039904    0.260355    2.912706
C     -0.387911   -1.073033    3.042959
C     -1.006332   -1.825141    4.088410
C     -1.440651   -1.562685    5.399250
H     -2.367317   -2.465683    7.129110
H     -2.577456   -4.688796    6.049522
H     -0.716113   -3.992179    1.760086
H      0.489373   -2.228629   -0.060861
H      1.459805   -1.462466   -2.002832
H      2.690644   -0.633749   -4.570839
H      4.014790    0.957595   -6.823317
H      4.746100    3.621873   -6.765781
H      3.041058    3.765135   -2.267150
H      1.823210    2.309136   -0.189986
H      0.940788    1.723516    1.657843
H     -0.081350    0.959470    3.735083
H     -1.333670   -0.578248    5.841407
