41

C     -1.901834   -3.930488   -3.393224
O     -1.638821   -3.045244   -2.311231
C     -2.136733   -1.765607   -2.416068
C     -2.875703   -1.281620   -3.498379
C     -3.334105    0.038258   -3.501405
C     -3.069466    0.885065   -2.421262
C     -3.533365    2.312126   -2.439393
C     -2.314905    0.403744   -1.341634
C     -1.851155   -0.914226   -1.327122
N     -1.092751   -1.466215   -0.270294
C     -0.668919   -0.858878    0.896783
O     -0.906761    0.293977    1.239775
C      0.112512   -1.824871    1.772324
C      0.907652   -1.143258    2.889143
N      2.286103   -0.821983    2.490677
C      2.366422    0.275053    1.520115
C      3.830552    0.686291    1.582844
C      4.306135    0.257970    2.966064
C      3.084987   -0.358946    3.629463
H     -1.447367   -3.566630   -4.320564
H     -2.977222   -4.096466   -3.515204
H     -1.442219   -4.894398   -3.154296
H     -3.111685   -1.900455   -4.357067
H     -3.902071    0.401831   -4.355290
H     -2.753464    2.953431   -2.861289
H     -3.769597    2.658070   -1.427593
H     -4.442859    2.420862   -3.039580
H     -2.101589    1.079877   -0.519368
H     -0.831447   -2.435084   -0.427519
H      0.770301   -2.447831    1.154085
H     -0.629391   -2.492823    2.228814
H      0.968024   -1.865132    3.714465
H      0.387010   -0.263001    3.285700
H      1.734317    1.123149    1.812263
H      2.090260   -0.039837    0.509255
H      4.414542    0.168696    0.812800
H      3.950887    1.763330    1.428124
H      4.693459    1.103829    3.542904
H      5.111142   -0.480039    2.869400
H      3.363096   -1.179425    4.298483
H      2.554326    0.404176    4.213445
