36

C     -5.339762    2.652490    1.001640
O     -4.253151    2.376954    0.126648
C     -3.151262    1.784866    0.678285
C     -2.108261    1.543389   -0.216175
C     -0.920315    0.942022    0.211411
C     -0.752205    0.564108    1.550881
C      0.526531   -0.074651    2.075350
C      1.584115    0.956625    2.489849
C      2.041781    1.873817    1.393297
O      2.157121    3.085820    1.479873
O      2.425717    1.245177    0.264585
N      1.042856   -1.095606    1.174719
C      1.838252   -2.127042    1.643108
O      2.031490   -2.279421    2.847640
C      2.425279   -2.963269    0.602793
C      2.092114   -3.086945   -0.736117
C      2.921050   -4.021324   -1.425144
C      3.857660   -4.588854   -0.592752
S      3.731308   -4.003331    1.007077
C     -1.806841    0.817383    2.444082
C     -2.995541    1.419381    2.013009
H     -6.131976    3.124316    0.412386
H     -5.746816    1.729746    1.428171
H     -5.045467    3.356013    1.787489
H     -2.221321    1.829641   -1.259301
H     -0.136388    0.782779   -0.522974
H      0.251009   -0.614783    2.992071
H      1.171871    1.591656    3.284592
H      2.474665    0.467171    2.900473
H      2.772984    1.979419   -0.288345
H      1.184016   -0.822143    0.213325
H      1.280120   -2.548952   -1.209465
H      2.829112   -4.269837   -2.475595
H      4.607920   -5.326668   -0.842796
H     -1.714321    0.543610    3.494157
H     -3.776476    1.587025    2.747187
