44

C     -0.210092   -0.707736   -3.235553
O      0.277465   -1.346401   -2.060618
C     -0.423247   -2.429160   -1.596722
C     -1.567782   -2.957102   -2.203504
C     -2.222930   -4.058001   -1.645813
C     -1.744889   -4.637263   -0.475025
C     -0.606177   -4.119371    0.138125
C      0.071650   -3.021521   -0.419568
C      1.282851   -2.471324    0.289268
N      0.913003   -1.373360    1.150762
C      1.781704   -0.862193    2.080395
O      2.864819   -1.381317    2.331119
C      1.353018    0.370252    2.810281
C      2.001779    0.616202    4.035047
C      1.670748    1.724911    4.814285
C      0.688295    2.605894    4.378690
C      0.041674    2.381620    3.162473
C      0.366042    1.271817    2.363061
N     -0.300070    1.098357    1.079419
C     -1.781545    0.961483    1.166876
S      0.186496    2.201604   -0.153987
C      1.872260    1.710892   -0.460888
O      0.175875    3.546610    0.380996
O     -0.582460    1.886690   -1.341702
H     -1.218565   -0.310717   -3.081159
H     -0.178589   -1.387167   -4.093673
H      0.452283    0.134674   -3.456541
H     -1.979225   -2.534352   -3.114253
H     -3.111153   -4.460363   -2.126603
H     -2.259175   -5.489296   -0.037586
H     -0.245703   -4.572077    1.060009
H      1.770255   -3.249611    0.888657
H      2.036074   -2.116019   -0.423340
H      0.138128   -0.791831    0.851918
H      2.771634   -0.067477    4.391850
H      2.182654    1.898052    5.758209
H      0.430770    3.476411    4.977778
H     -0.706052    3.100602    2.833851
H     -2.163865    0.487604    0.257538
H     -2.053399    0.311274    2.005661
H     -2.266790    1.932395    1.304719
H      2.475440    1.897621    0.428216
H      2.247257    2.318896   -1.287629
H      1.893251    0.658621   -0.745674
