40

O     -1.003923    1.024924   -2.607142
C     -2.124232    1.366153   -2.253417
N     -3.031696    2.053926   -3.050022
C     -2.891038    2.411024   -4.407975
C     -3.891452    3.221946   -4.962229
C     -3.832203    3.614744   -6.302080
C     -2.772965    3.197737   -7.102739
C     -1.777082    2.387359   -6.563032
C     -1.836862    1.993424   -5.222200
N     -2.674596    1.123278   -1.011319
C     -2.051113    0.537589    0.062135
N     -2.717465    0.166442    1.133305
N     -1.893631   -0.376615    2.098434
C     -0.628498   -0.371463    1.726120
C      0.505482   -0.902304    2.539281
S      1.324372    0.429325    3.479915
C      2.502532   -0.571320    4.442315
C      3.613078   -1.156412    3.604199
C      4.597302   -0.290228    3.088327
C      5.646499   -0.774114    2.305084
C      5.733751   -2.133150    2.022819
C      4.771110   -3.007424    2.524261
C      3.718047   -2.525581    3.309938
Cl     2.568167   -3.681556    3.881954
S     -0.370817    0.282253    0.156280
H     -3.832269    2.444877   -2.576812
H     -4.730403    3.562858   -4.361435
H     -4.612604    4.245970   -6.719601
H     -2.722516    3.501316   -8.145129
H     -0.948119    2.056263   -7.183774
H     -1.042525    1.355165   -4.847837
H     -3.672733    1.190501   -0.898462
H      0.117776   -1.643792    3.245728
H      1.234135   -1.397893    1.890205
H      1.951045   -1.323501    5.012482
H      2.952522    0.086262    5.196014
H      4.546005    0.778580    3.293742
H      6.393185   -0.087046    1.913743
H      6.549197   -2.512079    1.411813
H      4.847645   -4.068483    2.298117
