36

C     -0.511174   -0.465700    4.815036
C      0.135975    0.141712    3.557880
C      0.845043   -0.987150    2.793983
C      1.140967    1.212215    4.010347
O     -0.969119    0.695280    2.819310
C     -0.617519    1.273559    1.627324
N     -0.271487    2.567825    1.659163
C     -0.027386    3.132727    0.460499
C     -0.136737    2.459647   -0.734800
Br     0.225812    3.337088   -2.362889
C     -0.528318    1.136394   -0.640976
O     -0.651772    0.430818   -1.817022
C     -1.178520   -0.907928   -1.830229
C     -2.618296   -0.988072   -1.302448
C     -0.245653   -1.912552   -1.140752
C     -1.215935   -1.266412   -3.329685
N     -0.775942    0.523596    0.529317
H      0.230752   -0.931250    5.472446
H     -1.255183   -1.223523    4.542534
H     -1.046373    0.301716    5.386620
H      1.378038   -0.606888    1.915833
H      0.122537   -1.728157    2.434457
H      1.578706   -1.498075    3.427005
H      1.713456    1.610055    3.165682
H      1.862542    0.804697    4.726934
H      0.626880    2.059114    4.478436
H      0.263487    4.178486    0.500323
H     -2.672061   -0.861843   -0.217525
H     -3.072069   -1.958460   -1.532474
H     -3.239022   -0.200361   -1.744104
H     -0.258011   -1.810313   -0.053005
H      0.791706   -1.764708   -1.461265
H     -0.536226   -2.944670   -1.365920
H     -1.845639   -0.559885   -3.883509
H     -1.600708   -2.277689   -3.499438
H     -0.214650   -1.199225   -3.771664
