42

C     -3.451918    1.462415    4.321382
O     -3.949863    0.545863    3.358069
C     -3.038623   -0.132985    2.588246
C     -1.651767    0.024543    2.682433
C     -0.795859   -0.709899    1.855345
C     -1.322104   -1.608845    0.925467
C     -0.443578   -2.402494    0.033455
N     -0.885455   -3.338569   -0.742424
O      0.218348   -3.859278   -1.456252
C      1.346447   -3.019379   -1.241169
C      1.688841   -2.127074   -2.443747
O      0.984489   -2.021640   -3.443106
N      2.885522   -1.443517   -2.306792
C      3.247595   -0.391498   -3.230761
C      2.753816    0.890356   -2.670598
C      1.639222    1.663859   -2.919829
C      1.716496    2.769895   -2.040520
C      2.867473    2.598238   -1.307986
O      3.500980    1.454434   -1.676027
C      1.029842   -2.198508   -0.010280
C     -2.710211   -1.772827    0.827617
C     -3.572956   -1.040670    1.651288
O     -4.942613   -1.138056    1.620222
C     -5.518097   -2.038162    0.682957
H     -2.837297    0.953080    5.070848
H     -4.309526    1.902757    4.839111
H     -2.899022    2.277171    3.842507
H     -1.204207    0.712428    3.392280
H      0.274588   -0.563425    1.962989
H      2.215431   -3.663533   -1.061924
H      3.353937   -1.426858   -1.411603
H      2.824186   -0.580364   -4.221998
H      4.338850   -0.382598   -3.312322
H      0.865717    1.445080   -3.644449
H      1.018229    3.590243   -1.950754
H      3.349381    3.169509   -0.526750
H      1.304058   -1.144044   -0.086857
H      1.474933   -2.640149    0.886991
H     -3.096982   -2.477505    0.097353
H     -6.605493   -1.985091    0.793606
H     -5.274659   -1.748102   -0.344423
H     -5.213812   -3.069815    0.887864
