34

C      1.588227   -3.295865   -2.292659
N      0.908182   -2.826780   -1.106137
N      0.492048   -3.752464   -0.211390
C     -0.186688   -3.058841    0.711975
C     -0.156658   -1.658081    0.377906
C     -0.746641   -0.624250    1.108517
C     -1.420827   -1.096345    2.261469
C     -2.097704   -0.063478    3.110992
C     -2.727185   -0.480739    4.414462
O     -2.137145    1.107969    2.738992
C     -1.470769   -2.486528    2.616368
C     -0.856171   -3.512886    1.859542
C      0.578498   -1.530430   -0.779545
C      0.924506   -0.362593   -1.534116
C      2.088389   -0.061405   -2.224480
C      1.924165    1.229016   -2.786131
C      0.679019    1.657512   -2.398948
O      0.013664    2.786933   -2.627393
C     -1.248746    2.908223   -1.980667
O      0.070259    0.704463   -1.646461
H      2.661726   -3.153433   -2.149704
H      1.370473   -4.357831   -2.437669
H      1.227278   -2.737846   -3.159621
H     -0.704294    0.423910    0.839067
H     -3.082136    0.410010    4.942539
H     -1.990640   -0.974596    5.053545
H     -3.585055   -1.131699    4.228108
H     -2.006828   -2.802020    3.509944
H     -0.897039   -4.558295    2.133360
H      2.967023   -0.685380   -2.302132
H      2.626736    1.790066   -3.384654
H     -1.138495    2.861822   -0.891684
H     -1.944700    2.138950   -2.332421
H     -1.667024    3.885986   -2.237438
