81

C      4.145804    1.387264    6.131547
C      3.244786    2.301841    5.595732
C      2.460246    1.948435    4.492569
C      2.555284    0.675481    3.896081
C      1.727785    0.304978    2.727822
N      0.886244    1.220386    2.245884
C      0.170167    0.841429    1.187606
C     -0.762809    1.825161    0.596932
C     -1.562645    1.503327   -0.518210
C     -2.439237    2.435337   -1.085978
C     -2.542979    3.725433   -0.555841
N     -3.429416    4.679800   -1.138151
C     -3.071612    5.398599   -2.326597
C     -1.840942    5.225886   -2.984894
C     -1.532991    5.948936   -4.142743
C     -2.446582    6.861858   -4.661579
C     -3.667395    7.054994   -4.020594
C     -3.974226    6.331437   -2.863305
O     -5.199246    6.603390   -2.298354
C     -5.543635    5.916901   -1.156642
C     -6.799097    6.223244   -0.621303
C     -7.245950    5.572579    0.526123
C     -6.439350    4.614880    1.134660
C     -5.183551    4.309949    0.598115
C     -4.708932    4.960957   -0.554487
C     -1.760359    4.064801    0.552690
C     -0.886776    3.128387    1.118498
N      0.246548   -0.359983    0.615449
C      1.117464   -1.204600    1.167204
C      1.256625   -2.544351    0.556928
C      0.415150   -2.965209   -0.492267
C      0.553003   -4.227123   -1.081420
C      1.542362   -5.110596   -0.637725
N      1.695217   -6.391443   -1.246727
C      2.420800   -6.548492   -2.473770
C      3.036854   -5.474397   -3.140826
C      3.732497   -5.672057   -4.338834
C      3.829579   -6.946939   -4.889486
C      3.233252   -8.026069   -4.241203
C      2.536833   -7.826925   -3.044227
O      1.989325   -8.955677   -2.477500
C      1.285452   -8.805344   -1.304685
C      0.732849   -9.976588   -0.776230
C     -0.006557   -9.928294    0.402313
C     -0.193963   -8.709767    1.049320
C      0.359198   -7.538950    0.519784
C      1.113903   -7.565953   -0.665958
C      2.383891   -4.716725    0.407786
C      2.240627   -3.453581    0.993780
N      1.880242   -0.919443    2.222040
C      3.477116   -0.227416    4.462448
C      4.263093    0.121885    5.565656
H      4.756242    1.659960    6.988387
H      3.149109    3.292663    6.032795
H      1.764135    2.685786    4.095978
H     -1.508945    0.510230   -0.963005
H     -3.043131    2.154708   -1.945893
H     -1.097200    4.530127   -2.606093
H     -0.575298    5.798271   -4.635315
H     -2.207546    7.424655   -5.560171
H     -4.382491    7.770114   -4.417926
H     -7.427774    6.966279   -1.104523
H     -8.222460    5.808661    0.941194
H     -6.785161    4.099322    2.027676
H     -4.586647    3.550621    1.095947
H     -1.827468    5.064815    0.975207
H     -0.292726    3.431982    1.979733
H     -0.365652   -2.304393   -0.865980
H     -0.112570   -4.521432   -1.889762
H      2.985903   -4.465366   -2.740576
H      4.196935   -4.825921   -4.839518
H      4.369960   -7.100536   -5.820004
H      3.309837   -9.024030   -4.664221
H      0.881235  -10.923866   -1.287645
H     -0.437442  -10.837535    0.812922
H     -0.774797   -8.665586    1.967349
H      0.184634   -6.605881    1.048968
H      3.158846   -5.392349    0.762429
H      2.918323   -3.179588    1.801050
H      3.592196   -1.225007    4.041584
H      4.965649   -0.597010    5.979589
