45

C     -0.824797   -0.589505   -1.020462
C     -0.710323    0.892855   -1.350804
C     -0.174374    1.593988   -0.338207
C      0.094331    0.642058    0.704224
C     -0.261633   -0.689976    0.387078
C     -0.100328   -1.862500    1.259597
C     -0.471209   -3.217967    0.915942
C     -1.049299   -3.629340   -0.318078
C     -1.396671   -4.952779   -0.617645
C     -1.181496   -5.946570    0.312653
C     -0.620001   -5.609166    1.536697
C     -0.263360   -4.271371    1.852812
C      0.307532   -4.042028    3.143935
C      0.595130   -4.968801    4.222169
C      1.149652   -4.378237    5.325228
S      1.337108   -2.717048    5.098233
C      0.671985   -2.734065    3.491403
C      0.480921   -1.653757    2.584398
C      0.825786   -0.296511    2.864337
C      1.383680    0.293502    3.976283
O      1.535828    1.641558    3.792389
C      1.072312    1.936146    2.546557
C      0.633652    0.785903    1.953918
C     -1.169420    1.360484   -2.656256
N     -1.685640    0.427987   -3.524502
C     -2.139527    0.776952   -4.768187
C     -2.156594    2.046331   -5.331330
C     -1.637874    3.040987   -4.482751
N     -1.544476    4.343942   -4.791965
S     -0.873778    5.094013   -3.474456
N     -0.671943    3.804119   -2.454899
C     -1.123547    2.711561   -3.100485
H     -0.214041   -1.170408   -1.719332
H     -1.877857   -0.889154   -1.033537
H      0.030396    2.649253   -0.274209
H     -1.257911   -2.928492   -1.112147
H     -1.835039   -5.192356   -1.583200
H     -1.446307   -6.976672    0.092894
H     -0.465863   -6.419445    2.243434
H      0.401711   -6.032941    4.189645
H      1.450686   -4.851578    6.249807
H      1.725155   -0.041900    4.942719
H      1.128675    2.975641    2.256836
H     -2.520243   -0.066710   -5.344214
H     -2.530926    2.252605   -6.323514
