24

C      0.960708    0.029472   -0.264270
C      0.069056    1.133131   -0.011020
C     -0.350419    2.062470   -0.996812
C     -1.218001    3.119679   -0.705572
C     -1.697552    3.284941    0.584511
C     -1.308870    2.393210    1.580417
C     -0.437404    1.326703    1.300169
C     -0.069968    0.452355    2.326096
C      0.791206   -0.613573    2.081499
C      1.310421   -0.836686    0.803745
C      2.177492   -1.922058    0.590211
C      2.714724   -2.176382   -0.668670
C      2.390107   -1.346295   -1.730349
C      1.528546   -0.263255   -1.530479
H     -0.004437    1.978612   -2.022917
H     -1.514786    3.809833   -1.490926
H     -2.371921    4.104149    0.817863
H     -1.694985    2.538053    2.587438
H     -0.452488    0.591645    3.335036
H      1.052843   -1.271585    2.907481
H      2.443112   -2.583938    1.412107
H      3.383479   -3.019680   -0.816810
H      2.803665   -1.535383   -2.717460
H      1.307152    0.355175   -2.395437
