34

C      0.612402    2.656525    3.623096
C      1.765174    1.896725    3.500197
C      1.860873    0.948434    2.480363
C      0.814059    0.733898    1.559160
C     -0.356640    1.491482    1.705440
C     -0.438381    2.457218    2.731160
C     -1.531807    1.352216    0.774393
C     -1.991441   -0.092486    0.631486
C     -1.190799   -0.853230   -0.393749
C     -1.899001   -1.570392   -1.386293
C     -1.241170   -2.314054   -2.373355
C     -2.001887   -3.034845   -3.376449
C     -3.301671   -3.589438   -3.342235
N     -3.641040   -4.168177   -4.496999
O     -2.544693   -3.992778   -5.325325
C     -1.577796   -3.317918   -4.653865
C      0.151887   -2.345073   -2.354791
C      0.858930   -1.651182   -1.367184
C      0.208259   -0.904200   -0.366067
N      1.022121   -0.247895    0.573035
H      0.527630    3.401593    4.409309
H      2.590727    2.038545    4.191975
H      2.776618    0.365755    2.410190
H     -1.334921    3.064413    2.841007
H     -1.283989    1.802492   -0.195158
H     -2.376419    1.927653    1.175284
H     -3.044353   -0.072481    0.321580
H     -1.961962   -0.629902    1.587822
H     -2.986923   -1.525687   -1.385378
H     -4.013571   -3.603892   -2.529198
H     -0.680031   -3.119189   -5.219966
H      0.713936   -2.916112   -3.089197
H      1.945697   -1.702367   -1.387428
H      1.989243   -0.549048    0.529366
