30

C     -4.814892    1.581874   -0.690292
C     -3.348891    1.518228   -0.387968
C     -2.525700    0.578981   -1.052116
C     -1.133223    0.452742   -0.830759
C     -0.412807    1.257732    0.078060
C      1.028199    1.117452    0.299491
C      1.966323    2.057017   -0.173785
C      1.559420    3.206734   -0.934232
N      1.249961    4.127559   -1.570305
C      3.338082    1.874414    0.070500
C      1.506261    0.003391    1.012508
C      2.872180   -0.172079    1.251921
C      3.800199    0.755559    0.773344
C      5.263020    0.588620    1.061796
C     -1.184833    2.223488    0.787552
N     -0.729501    3.089354    1.710931
S     -2.029116    3.993395    2.200527
N     -3.240871    3.312093    1.298024
C     -2.674109    2.353596    0.546353
H     -5.286950    0.620681   -0.463219
H     -5.318464    2.352537   -0.099316
H     -4.969924    1.813506   -1.748873
H     -2.984599   -0.089729   -1.783402
H     -0.594039   -0.304132   -1.403321
H      4.052350    2.612456   -0.293921
H      0.807553   -0.735125    1.403374
H      3.204119   -1.038917    1.820332
H      5.870575    1.014838    0.256559
H      5.527302   -0.471117    1.141355
H      5.518399    1.088476    2.001170
