37

C      2.192278   -5.104381   -5.152668
C      2.535746   -5.795930   -4.017039
O      2.168693   -5.102073   -2.910533
C      1.577078   -3.940860   -3.328724
C      1.574181   -3.908290   -4.711292
C      1.103708   -3.038712   -2.279693
C      1.254851   -3.359716   -0.923081
C      0.801954   -2.496542    0.080008
C      0.180201   -1.278144   -0.258937
C     -0.303353   -0.354661    0.714447
S     -0.263709   -0.465652    2.445850
C     -1.044118    1.050994    2.670340
C     -1.387206    1.695704    3.901069
C     -2.031162    2.950061    3.937254
C     -2.270430    3.441170    2.665056
C     -2.882620    4.639814    2.383066
N     -2.934696    4.768161    1.004059
C     -2.363746    3.667178    0.398995
C     -1.962652    2.865452    1.425457
C     -1.308726    1.591014    1.421991
C     -0.910653    0.837088    0.296744
N     -1.065195    1.163891   -1.017514
C     -0.597934    0.270578   -1.909866
C      0.020186   -0.939918   -1.612882
C      0.483168   -1.822866   -2.609472
H      2.365504   -5.422156   -6.171034
H      3.020670   -6.744598   -3.833849
H      1.175672   -3.119510   -5.332817
H      1.731098   -4.293635   -0.629310
H      0.941326   -2.788389    1.117987
H     -1.143883    1.203166    4.841101
H     -2.296147    3.448560    4.859376
H     -3.287516    5.416612    3.017294
H     -3.333942    5.555895    0.510842
H     -2.306673    3.576899   -0.677190
H     -0.743615    0.574664   -2.944712
H      0.353680   -1.550137   -3.654631
