41

O     -0.107310   -4.869214    1.285947
C      0.960415   -4.472385    0.433364
C      0.533713   -3.465324   -0.657486
C     -0.779332   -3.864192   -1.329072
N      0.471163   -2.084016   -0.172462
C      0.985128   -0.964580   -1.003085
C      0.549314    0.182192   -0.187293
C     -0.145621   -0.243800    0.910052
N     -0.546166    0.815857    1.652711
C     -1.275506    0.849185    2.837744
C     -1.566793    2.033924    3.398748
C     -1.116245    3.251379    2.744931
C     -0.408975    3.223073    1.598633
C     -0.079515    1.968924    0.995781
C      0.617387    1.583497   -0.151093
C      1.244757    2.493338   -1.087688
C      0.848909    2.497368   -2.430104
C      1.462585    3.359841   -3.340965
C      2.477029    4.217091   -2.916016
C      2.879724    4.213910   -1.581066
C      2.266603    3.353194   -0.668474
C     -0.248950   -1.658178    0.952414
O     -0.825801   -2.353962    1.771705
H     -0.485948   -4.048453    1.671619
H      1.769206   -4.067720    1.051228
H      1.332779   -5.384747   -0.044580
H      1.328465   -3.474849   -1.414531
H     -1.624655   -3.812931   -0.634768
H     -1.004837   -3.192347   -2.164497
H     -0.720386   -4.883883   -1.723291
H      2.071323   -1.049594   -1.085136
H      0.501188   -0.990839   -1.982853
H     -1.581974   -0.099382    3.262170
H     -2.132823    2.107604    4.320549
H     -1.375457    4.197796    3.209836
H     -0.092247    4.145851    1.122733
H      0.051775    1.841686   -2.771702
H      1.146509    3.365594   -4.380917
H      2.953696    4.888848   -3.625497
H      3.672304    4.880009   -1.250095
H      2.594969    3.352355    0.368427
