29

C      3.931820   -0.480706   -1.846346
C      3.853575    0.601159   -2.714865
C      2.829583    1.514208   -2.548789
N      1.876741    1.452152   -1.600448
C      1.951585    0.390238   -0.746094
C      2.953887   -0.577749   -0.844009
S      2.798203   -1.795578    0.362472
C      1.385068   -1.073656    1.060204
C      1.095228    0.074561    0.332497
C     -0.051830    0.821364    0.758838
C     -0.590189    1.971092    0.263074
N     -1.682982    2.232407    1.061194
C     -1.810113    1.253347    2.032975
C     -0.784610    0.349289    1.857630
C     -0.538444   -0.803012    2.629885
C     -1.256123   -1.299793    3.736009
C     -0.818805   -2.470482    4.344864
C      0.308742   -3.101783    3.836268
N      1.025093   -2.657595    2.777178
C      0.602104   -1.515186    2.179494
H      4.718131   -1.222820   -1.938205
H      4.581726    0.728053   -3.508769
H      2.747073    2.369237   -3.215803
H     -0.319463    2.621865   -0.557635
H     -2.302053    3.025310    0.951863
H     -2.620298    1.306435    2.747162
H     -2.133606   -0.782572    4.109254
H     -1.343482   -2.885217    5.198407
H      0.680552   -4.018900    4.285825
