37

O     -2.040802   -4.056411   -2.437564
C     -1.323802   -3.914000   -1.456079
C     -1.007500   -5.067052   -0.590946
C     -0.230742   -4.943946    0.487731
C      0.357820   -3.648030    0.878730
O      1.068863   -3.568430    1.871457
C      0.059056   -2.473667    0.035480
C      0.596009   -1.224091    0.375292
C      0.326448   -0.093211   -0.410888
C      0.891357    1.208415   -0.062054
C      2.232166    1.525963   -0.368535
C      2.780226    2.769778   -0.050109
C      2.014348    3.746665    0.586494
C      0.694654    3.413506    0.886169
O     -0.187108    4.243111    1.504977
C     -1.356621    3.562506    1.628166
C     -2.515830    4.065883    2.215875
C     -3.621131    3.211566    2.255420
C     -3.550719    1.920534    1.729621
C     -2.368986    1.442613    1.143995
C     -1.240435    2.285872    1.087613
C      0.102006    2.186978    0.592810
C     -0.484277   -0.240775   -1.547798
C     -1.022556   -1.485079   -1.887239
C     -0.750127   -2.603220   -1.092374
H     -1.440543   -6.017852   -0.880039
H      0.003495   -5.789212    1.124818
H      1.224919   -1.129303    1.260761
H      2.858323    0.788652   -0.869449
H      3.817157    2.981917   -0.302095
H      2.419532    4.718657    0.841822
H     -2.550261    5.069725    2.621523
H     -4.548791    3.559093    2.705366
H     -4.424237    1.273281    1.775271
H     -2.335782    0.433652    0.745983
H     -0.703167    0.621872   -2.176510
H     -1.651289   -1.576369   -2.771537
