28

C      1.215546   -3.105781   -2.180560
C      1.900845   -2.488012   -0.971034
N      1.200135   -1.297042   -0.505552
C      0.157127   -1.389387    0.385653
O     -0.304226   -2.386886    0.912377
C     -0.317666    0.014481    0.585534
C     -1.326446    0.249979    1.434564
C     -1.855887    1.525102    1.755066
C     -1.330437    2.517697    2.562932
C     -2.182184    3.655960    2.663667
C     -3.346540    3.490230    1.949685
S     -3.412949    1.968530    1.174669
N      0.454570    0.821882   -0.229789
C      0.287204    2.255612   -0.385212
C      1.399886    0.019852   -0.911331
S      2.551742    0.547792   -2.000007
H      0.185776   -3.393572   -1.944289
H      1.754197   -4.000889   -2.506313
H      1.179932   -2.403499   -3.019324
H      2.937040   -2.237423   -1.216533
H      1.921468   -3.221396   -0.156881
H     -1.794494   -0.596062    1.937213
H     -0.370911    2.432384    3.059855
H     -1.955990    4.545913    3.238318
H     -4.170263    4.184502    1.854173
H     -0.755405    2.482455   -0.621411
H      0.898106    2.652064   -1.198459
H      0.596378    2.752918    0.537323
