42

C      1.422777   -0.662355   -1.192324
C      0.053660   -1.314163   -0.875265
C     -0.286431   -2.681847   -1.087063
C     -1.575321   -3.234158   -0.773683
C     -1.969804   -4.636314   -0.974829
N     -3.151938   -5.155083   -0.691448
C     -3.191648   -6.498399   -1.000858
C     -2.033060   -7.018176   -1.525929
S     -0.853462   -5.787070   -1.637111
C     -2.449090   -2.253673   -0.234780
C     -3.752254   -2.382124    0.185734
N     -4.182201   -1.149257    0.631762
C     -3.176355   -0.215599    0.508304
C     -2.098614   -0.872788   -0.023417
C     -0.858224   -0.365380   -0.330771
C     -0.186651    0.872216   -0.264961
N     -0.424315    2.147169    0.124911
C      0.736133    2.851688   -0.106869
C      0.878725    4.236236    0.177895
C      2.078689    4.790194   -0.103776
C      3.161128    3.981983   -0.673503
C      4.384161    4.454905   -0.982677
Si     5.463117    3.092713   -1.684925
C      4.041124    1.898832   -1.480904
C      2.972216    2.527012   -0.959280
C      1.691584    1.989617   -0.645663
C      1.097277    0.730682   -0.743658
H      1.635552   -0.708676   -2.263066
H      2.215269   -1.112272   -0.589464
H      0.487645   -3.320127   -1.509050
H     -4.102191   -7.056272   -0.820633
H     -1.830581   -8.031653   -1.839624
H     -4.424730   -3.228987    0.214640
H     -5.106828   -0.962506    0.997070
H     -3.333938    0.809600    0.809957
H     -1.285307    2.508886    0.510353
H      0.068048    4.819036    0.599149
H      2.262101    5.841872    0.086553
H      4.748924    5.462399   -0.865766
H      5.809879    3.326286   -3.107810
H      6.608556    2.769261   -0.800195
H      4.119433    0.861173   -1.758460
