46

C      1.037796   -3.304842    2.952111
C      1.129583   -1.845902    2.619477
C      0.648916   -1.630990    1.382693
C      0.534082   -0.375122    0.628876
C      0.945371    0.861521    1.147450
C      0.817181    2.029020    0.389505
C      0.255714    1.883549   -0.874159
N     -0.149875    0.706164   -1.412964
C     -0.014785   -0.420873   -0.670966
C     -0.464443   -1.703901   -1.268830
C     -1.026598   -1.892160   -2.551699
C     -1.284083   -0.949701   -3.526509
N     -1.840062   -1.579666   -4.627996
C     -1.955100   -2.932332   -4.395720
C     -1.459578   -3.100034   -3.139076
C     -1.333324   -4.286442   -2.387408
C     -1.659627   -5.605777   -2.675807
C     -1.290793   -6.283321   -1.531659
O     -0.768831   -5.435448   -0.594053
C     -0.790891   -4.166152   -1.125916
C     -0.358824   -2.949540   -0.544083
C      0.210845   -2.901514    0.809783
C      0.430483   -3.876864    1.707878
C      1.238431    3.346549    0.887813
S      2.706095    3.501234    1.794151
C      2.529734    5.194633    1.981580
C      1.392963    5.646861    1.366625
N      1.024441    6.957802    1.367018
C     -0.142425    7.128882    0.687421
C     -0.870654    6.106823    0.066886
N     -0.519952    4.791458    0.050737
C      0.647817    4.586501    0.729110
H      0.392856   -3.472152    3.819620
H      2.028008   -3.729944    3.139946
H      1.528548   -1.108911    3.298377
H      1.356435    0.912171    2.151157
H      0.112869    2.738846   -1.530505
H     -1.130070    0.120205   -3.557015
H     -2.119342   -1.107097   -5.477711
H     -2.367297   -3.604246   -5.135007
H     -2.096144   -6.028265   -3.568044
H     -1.330842   -7.322518   -1.236130
H      0.214541   -4.926854    1.585825
H      3.262189    5.772937    2.525810
H     -0.500703    8.153950    0.648187
H     -1.795946    6.337326   -0.454336
