31

C      2.202107    1.253182    2.403541
O      1.768670    0.032391    2.989710
C      1.244940   -0.906766    2.144107
C      0.762558   -2.055407    2.775184
C      0.192042   -3.088950    2.032501
C      0.104951   -2.981517    0.646130
C      0.597057   -1.843183   -0.006469
C      0.485602   -1.718402   -1.508170
O     -0.861325   -1.445468   -1.896432
C     -1.208764   -0.112016   -1.822256
N     -0.268060    0.840534   -1.991225
C     -0.667792    2.121453   -1.949716
N     -1.906353    2.588342   -1.761481
C     -2.807075    1.601818   -1.612417
S     -4.458404    1.951192   -1.370790
C     -4.860453    0.289124   -1.293876
C     -3.752199   -0.514970   -1.449360
C     -2.547946    0.241678   -1.635085
C      1.161749   -0.804913    0.754085
H      2.557526    1.902958    3.209093
H      3.039200    1.085359    1.717932
H      1.375598    1.767293    1.901546
H      0.826384   -2.141151    3.857142
H     -0.187044   -3.973637    2.536867
H     -0.351050   -3.787313    0.075045
H      0.753887   -2.685018   -1.952980
H      1.211752   -1.008349   -1.923363
H      0.107967    2.868936   -2.086743
H     -5.886233   -0.016058   -1.137267
H     -3.791272   -1.597560   -1.428628
H      1.523104    0.076389    0.233095
