46

C     -2.574831    3.973099    7.138957
N     -3.178130    2.806735    7.118195
C     -2.777212    2.112495    5.992404
C     -1.872908    2.754728    5.161836
S     -1.512169    4.298165    5.836201
C     -1.246925    2.287884    3.923938
C     -0.954248    3.125375    2.858658
N     -0.381675    2.733743    1.687364
C     -0.053085    1.437510    1.473451
C     -0.326697    0.527456    2.526742
C     -0.917984    0.950486    3.743672
C      0.103379   -0.780856    2.233395
C      0.114128   -1.841907    3.109516
N      0.746104   -2.882614    2.474575
C      1.139843   -2.487401    1.217217
C      0.659040   -1.216752    0.990649
C      0.854310   -0.420973   -0.173374
C      1.334205   -0.853281   -1.539704
C      1.347119   -2.147450   -2.169468
C      0.608066   -3.227431   -1.737757
S      0.851078   -4.631500   -2.697139
C      1.818789   -3.772304   -3.818612
C      1.950628   -2.454287   -3.452399
C      2.579547   -1.546068   -4.292500
C      2.462038   -0.242103   -3.794162
C      1.846160    0.086508   -2.517959
C      1.630785    1.407836   -2.071190
C      1.946968    2.548129   -2.777749
N      1.550434    3.625145   -2.026057
C      0.989165    3.190782   -0.851566
C      1.012046    1.812618   -0.838449
C      0.561120    0.967291    0.216255
H     -2.735220    4.692013    7.931912
H     -3.188042    1.124564    5.819860
H     -1.184331    4.187520    2.890287
H     -1.098019    0.228371    4.534010
H     -0.211843   -1.950042    4.134769
H      0.953923   -3.781336    2.891703
H      1.747378   -3.155038    0.622755
H     -0.082963   -3.293471   -0.911271
H      2.193828   -4.271971   -4.701256
H      3.026966   -1.772364   -5.250570
H      2.846339    0.564462   -4.416530
H      2.406782    2.707338   -3.742652
H      1.655723    4.595395   -2.292553
H      0.633000    3.917920   -0.135568
