28

F      1.507683   -0.781665    2.192747
C      0.457762   -1.249803    1.499844
C      0.174191   -0.749183    0.218004
C      0.993788    0.304129   -0.408083
C      1.474651    0.165890   -1.720922
C      2.244501    1.168168   -2.321254
C      1.310939    1.485976    0.280326
C      2.080261    2.490165   -0.317260
C      2.563261    2.333531   -1.619124
C      3.361120    3.422642   -2.271770
C     -0.931808   -1.295315   -0.454283
C     -1.707234   -2.291823    0.139039
F     -2.748776   -2.788946   -0.543117
C     -1.422332   -2.774600    1.417177
C     -2.252502   -3.865653    2.019270
C     -0.318801   -2.248442    2.093457
H      1.261997   -0.736038   -2.291499
H      2.596747    1.027429   -3.340706
H      0.953853    1.639973    1.297044
H      2.299766    3.394495    0.245902
H      4.067381    3.007664   -2.998563
H      2.692340    4.119470   -2.786252
H      3.946752    3.976041   -1.530132
H     -1.211257   -0.945072   -1.444543
H     -1.962402   -4.833380    1.598556
H     -3.316322   -3.694684    1.824089
H     -2.124161   -3.906346    3.106061
H     -0.045517   -2.603273    3.083289
