26

O     -0.448385   -3.871361    3.248177
C     -1.049281   -3.941334    2.185752
O     -1.845261   -5.006801    1.931563
C     -1.045634   -3.010663    1.089464
C     -1.687382   -3.008807   -0.135970
C     -1.299143   -1.822336   -0.802396
C     -0.440060   -1.158900    0.048665
C      0.317454    0.119329   -0.022661
O      0.029692    0.721551   -1.284800
C      0.633143    1.918604   -1.553561
C      0.315401    2.461638   -2.802732
C      0.860690    3.681545   -3.209450
C      1.729036    4.362383   -2.361563
Cl     2.405211    5.865169   -2.854140
C      2.053192    3.831578   -1.114652
C      1.505409    2.608875   -0.709369
O     -0.283620   -1.877411    1.198571
H     -1.752415   -5.543838    2.745184
H     -2.355731   -3.778519   -0.497484
H     -1.604256   -1.485013   -1.783838
H     -0.008332    0.773271    0.794660
H      1.389108   -0.095810    0.061378
H     -0.363305    1.929323   -3.465260
H      0.603819    4.089803   -4.182887
H      2.731462    4.363076   -0.452001
H      1.782632    2.229362    0.268775
