40

C      0.190282    3.728516    6.476973
C      0.733932    4.650681    5.582787
C      0.887272    4.331020    4.229729
C      0.482465    3.061749    3.789183
C     -0.063181    2.141768    4.697753
C     -0.218127    2.458510    6.052976
N     -0.380915    0.972530    4.024901
C     -0.048685    1.130439    2.706093
C     -0.041926    0.486445    1.451277
C     -0.407163   -0.741112    0.913994
N     -0.227581   -0.975004   -0.410684
C      0.296846   -0.006214   -1.211573
C      0.701102    1.242929   -0.745526
C      0.504742    1.449310    0.612242
O      0.821374    2.604993    1.272395
C      0.464489    2.370426    2.563535
C      0.457391   -0.381920   -2.627383
C      1.369161   -1.411465   -2.934781
C      1.611667   -1.792655   -4.249947
C      0.942201   -1.152137   -5.287056
C      0.011685   -0.136184   -5.025491
C     -0.662199    0.484600   -6.090696
C     -1.605761    1.483802   -5.860638
C     -1.893608    1.871082   -4.559752
C     -1.230262    1.265134   -3.489911
C     -0.253186    0.258261   -3.687548
H      0.081275    4.000872    7.524738
H      1.043000    5.630371    5.939634
H      1.310717    5.049578    3.534468
H     -0.639775    1.749110    6.758044
H     -0.788500    0.133702    4.416337
H     -0.836807   -1.549937    1.492728
H      1.136170    1.999608   -1.383883
H      1.898887   -1.918814   -2.129696
H      2.321320   -2.586838   -4.465061
H      1.146168   -1.462244   -6.309875
H     -0.458738    0.187344   -7.117490
H     -2.119892    1.950545   -6.696417
H     -2.637899    2.640242   -4.370794
H     -1.502161    1.584066   -2.486011
