38

C     -2.267319   -3.249032   -2.087523
C     -1.009740   -2.443988   -1.931481
C     -1.131052   -1.641959   -0.866913
C     -0.243099   -0.701438   -0.300067
C      1.032970   -0.233845   -0.570419
C      2.178870   -0.368952   -1.494357
C      3.142794    0.659883   -0.869400
C      2.612564    1.265504    0.224687
C      1.329710    0.710522    0.392284
O      0.301321    0.866603    1.264203
C     -0.657581   -0.006227    0.827369
C     -1.938117   -0.135489    1.515880
C     -2.269813    0.609195    2.649252
C     -3.514836    0.430207    3.253229
C     -4.427112   -0.488749    2.728929
C     -4.106442   -1.240475    1.594212
C     -2.864369   -1.076496    0.973765
C     -2.447763   -1.838174   -0.236637
C     -3.114338   -2.770258   -0.939581
C      4.457154    0.895309   -1.450055
N      4.780440    0.186793   -2.533592
C      5.992928    0.446455   -3.017114
N      6.864545    1.320347   -2.521184
C      6.426731    1.963516   -1.442076
N      5.242220    1.799457   -0.859727
H     -2.751648   -3.040464   -3.046002
H     -2.061802   -4.320207   -2.003249
H     -0.152966   -2.512933   -2.582904
H      1.905692   -0.090855   -2.516793
H      2.599871   -1.378595   -1.467544
H      3.060204    2.019147    0.853472
H     -1.564974    1.325998    3.062680
H     -3.774913    1.009281    4.135970
H     -5.394794   -0.620471    3.207439
H     -4.834989   -1.947244    1.208778
H     -4.107065   -3.140594   -0.737335
H      6.299443   -0.106512   -3.898640
H      7.097852    2.689253   -0.995335
