46

C      0.446347    3.307798    2.755499
C     -0.351188    2.262246    3.468502
C     -0.519046    1.197431    2.667317
C     -1.089561   -0.097626    2.998973
C     -0.962816   -1.068138    2.067473
C     -0.328655   -0.851263    0.739629
C     -0.146760   -1.965845   -0.084665
C      0.420601   -1.821373   -1.346955
C      0.712595   -0.548452   -1.853580
C      1.354506   -0.360803   -3.182389
S      1.989863   -1.630252   -4.138081
C      2.525170   -0.547738   -5.350779
C      2.230965    0.762788   -5.044664
C      1.562174    0.865096   -3.795437
C      1.062899    2.025755   -3.145905
C      0.922032    3.274974   -3.611661
C      0.132277    4.081118   -2.629095
C     -0.157583    3.077926   -1.551732
C      0.455250    1.908508   -1.815183
C      0.413547    0.615272   -1.069579
C      0.049405    0.446587    0.287271
C      0.073417    1.474372    1.356100
C      0.703659    2.660420    1.428531
C     -1.748863   -0.414450    4.245155
C     -3.064696   -0.592806    4.447044
C     -3.297605   -0.906348    5.833473
C     -2.128440   -0.925468    6.489616
C     -1.005522   -0.610048    5.540032
H      1.384236    3.510587    3.280847
H     -0.121376    4.235659    2.641461
H     -0.668971    2.345202    4.496138
H     -1.351859   -2.064460    2.261764
H     -0.412578   -2.962438    0.260461
H      0.599665   -2.717848   -1.934349
H      3.028113   -0.925381   -6.230222
H      2.484502    1.594076   -5.690026
H      1.232604    3.634254   -4.580152
H      0.713366    4.923188   -2.242474
H     -0.794540    4.447850   -3.080076
H     -0.795195    3.294541   -0.708630
H      1.329670    3.105720    0.671643
H     -3.843539   -0.517341    3.703199
H     -4.272469   -1.094543    6.257102
H     -1.999384   -1.133373    7.540876
H     -0.477185    0.294122    5.855549
H     -0.302954   -1.447180    5.478368
