47

C      5.815635    0.614817    0.306535
C      6.619222   -0.365035    1.127589
C      5.845874   -1.238681    1.792236
C      4.462628   -0.926759    1.478364
C      3.297064   -1.498621    1.943520
C      2.056668   -0.992587    1.497720
C      1.997181    0.064748    0.530600
C      3.215988    0.662550    0.144531
C      4.421584    0.153018    0.602758
C      0.680490    0.543964    0.034544
C      0.425176    1.341614   -1.100477
C      1.273962    1.706907   -2.119107
O      0.618699    2.463832   -3.046509
C     -0.682020    2.551110   -2.655545
C     -0.860255    1.863187   -1.481343
C     -2.064029    1.653784   -0.808885
C     -1.849015    0.765471    0.274352
C     -0.568779    0.205394    0.667686
C     -0.507428   -0.838522    1.727550
C     -1.571231   -1.343162    2.391677
Si    -1.085446   -2.718856    3.552925
C      0.674148   -2.469835    2.994291
C      0.781763   -1.477064    2.083312
C     -3.345467    2.217944   -1.184614
C     -3.589742    3.589497   -1.355261
N     -4.765218    4.207417   -1.709254
C     -5.893638    3.475681   -1.934749
C     -5.815314    2.077265   -1.791518
N     -6.816335    1.199709   -1.967593
S     -6.176064   -0.303933   -1.681729
N     -4.609389    0.092458   -1.312975
C     -4.507747    1.431868   -1.404344
H      5.978911    1.639872    0.651012
H      6.050157    0.518827   -0.757324
H      7.699222   -0.350655    1.167925
H      6.165624   -2.032684    2.447163
H      3.360312   -2.304801    2.664400
H      3.251183    1.548097   -0.476401
H      2.306924    1.514258   -2.366916
H     -1.327169    3.097898   -3.329247
H     -2.733342    0.476857    0.842058
H     -2.611319   -1.080489    2.301641
H     -1.634458   -4.032919    3.140913
H     -1.286945   -2.357423    4.976676
H      1.454169   -3.076869    3.421387
H     -2.778009    4.300626   -1.189859
H     -6.795480    4.005701   -2.210490
