39

C      2.742674   -0.929559   -6.619292
C      3.531096   -0.399194   -5.419267
C      2.783099   -0.421349   -4.291755
C      1.493649   -0.932990   -4.591705
C      1.436384   -1.242845   -5.970577
C      0.220997   -1.747009   -6.343188
S     -0.843070   -1.817346   -4.982420
C      0.346771   -1.180636   -3.893596
C      0.023163   -1.000014   -2.488453
C     -0.981196   -0.118005   -2.042132
C     -1.292032    0.070475   -0.675852
C     -0.631913   -0.604696    0.375442
C     -0.957061   -0.407444    1.788807
C     -1.091517   -1.342067    2.795036
C     -1.405582   -0.752286    4.055477
C     -1.498975    0.625316    3.999899
S     -1.204508    1.176519    2.400290
C     -1.810215    1.515297    5.100904
C     -2.381959    1.160518    6.313832
C     -2.552048    2.266498    7.197148
C     -2.105584    3.440785    6.637353
S     -1.484575    3.203896    5.065055
C      0.393611   -1.519420   -0.014969
N      1.158793   -2.278648    0.792104
S      2.187634   -3.140567   -0.175785
N      1.722808   -2.608582   -1.670500
C      0.732429   -1.717457   -1.484294
H      2.640875   -0.159062   -7.388363
H      3.218316   -1.824261   -7.031666
H      4.553100   -0.059135   -5.482416
H      3.107805   -0.108662   -3.309989
H     -0.111221   -2.075794   -7.317570
H     -1.544890    0.454952   -2.778197
H     -2.090825    0.773599   -0.435947
H     -0.967860   -2.406364    2.640598
H     -1.538899   -1.327640    4.961751
H     -2.675182    0.149633    6.565588
H     -2.980847    2.202083    8.189886
H     -2.110482    4.428510    7.076020
