43

C      2.211370   -1.353391   -7.141340
C      2.163355   -2.499263   -6.386518
N      1.787925   -2.145874   -5.119255
C      1.588081   -0.781494   -5.029917
C      1.850805   -0.275602   -6.291717
C      1.186742   -0.162058   -3.795361
S      0.926297   -1.075688   -2.341529
C      0.492809    0.305128   -1.361563
C      0.141458    0.153778    0.063250
C      0.126972   -1.075259    0.727375
C     -0.215369   -1.160418    2.084828
C     -0.549071   -0.011295    2.797919
N     -0.540754    1.186663    2.172888
C     -0.204685    1.241627    0.854592
C     -0.918848   -0.022168    4.223954
C     -0.985504   -1.186353    5.057974
C     -1.346819   -1.207220    6.456376
C     -1.688500   -0.063431    7.201209
C     -1.623367    1.059581    6.393477
C     -1.891050    2.343609    6.784307
O     -1.723225    3.184122    5.722334
C     -1.345738    2.421552    4.650723
C     -1.266915    1.095872    5.006105
C      0.569119    1.380690   -2.188441
C      0.386428    2.793205   -2.187646
C      0.664249    3.259167   -3.485816
N      1.019473    2.217747   -4.333462
C      0.942156    1.135695   -3.499721
H      2.476336   -1.294624   -8.189270
H      2.362693   -3.532119   -6.639003
H      1.669343   -2.785809   -4.345168
H      1.799478    0.754524   -6.607203
H      0.379169   -2.000320    0.216465
H     -0.210209   -2.139372    2.549620
H     -0.232016    2.250365    0.460375
H     -0.748231   -2.160231    4.630068
H     -1.353986   -2.173227    6.963500
H     -1.958149   -0.083566    8.246966
H     -2.192534    2.814635    7.708753
H     -1.179901    2.976109    3.738309
H      0.090482    3.433630   -1.368782
H      0.635664    4.268424   -3.876765
H      1.271252    2.238779   -5.310710
