37

Si     1.960375   -0.220565    1.325670
C      0.273407    0.558244    0.900885
C     -0.087717    0.280509   -0.370948
C      0.884684   -0.532267   -1.092540
C      2.083405   -0.950009   -0.429638
C      3.134957   -1.757761   -1.019873
C      4.300315   -2.145647   -0.326605
C      5.296662   -2.927307   -0.928960
C      5.167985   -3.352669   -2.248847
C      4.040683   -3.001282   -2.982817
C      3.033808   -2.213890   -2.380814
C      1.837055   -1.785120   -3.011872
C      1.407781   -2.028037   -4.291779
O      0.193940   -1.429234   -4.496344
C     -0.155535   -0.797062   -3.334120
C      0.823991   -0.989701   -2.397327
C     -0.511331    1.334786    1.804327
S      0.003320    1.670005    3.462493
C     -1.393112    2.599596    3.865728
C     -2.186621    2.635126    2.781437
N     -3.390524    3.269792    2.684560
C     -3.745961    2.975877    1.372778
C     -2.762715    2.189108    0.736176
C     -1.716126    1.958552    1.676838
H      1.865434   -1.291413    2.352462
H      3.023526    0.789702    1.568822
H     -0.996262    0.603994   -0.854437
H      4.461026   -1.846217    0.706227
H      6.180007   -3.204086   -0.357626
H      5.947569   -3.958138   -2.703826
H      3.947189   -3.336539   -4.011342
H      1.802894   -2.567539   -5.140365
H     -1.102779   -0.277732   -3.355562
H     -1.538064    3.045625    4.839365
H     -3.872655    3.805327    3.395960
H     -4.683603    3.352880    0.984679
H     -2.826335    1.841541   -0.285150
