49

C      1.407069    1.146403    5.180832
C      0.690022    1.964720    4.078380
C      1.380049    3.341264    3.919500
C     -0.768549    2.204376    4.526068
C     -1.065628    2.873255    5.732092
C     -2.384568    3.097135    6.130120
C     -3.432686    2.664150    5.327821
C     -3.158986    2.003274    4.131689
C     -1.837426    1.754650    3.733835
N     -1.590014    1.133208    2.505312
C     -0.315845    0.794595    2.036619
C     -0.183936    0.123181    0.809940
C      1.072790   -0.192106    0.271335
C      1.193527   -0.906129   -1.009132
C      0.556502   -2.137319   -1.215028
C      0.672683   -2.820934   -2.434121
C      1.426243   -2.297763   -3.498828
C      1.558395   -2.996305   -4.793215
C      0.584634   -3.848522   -5.316846
N      0.707349   -4.494655   -6.505743
C      1.855171   -4.252627   -7.172077
C      2.829127   -3.405394   -6.677532
N      2.702822   -2.763483   -5.492597
C      2.068940   -1.066793   -3.279667
C      1.954459   -0.383092   -2.062075
C      2.206926    0.199973    0.990594
C      2.087370    0.885708    2.203130
C      0.825770    1.199339    2.743688
H      2.463492    0.972594    4.948356
H      0.934912    0.164696    5.312189
H      1.386812    1.651620    6.152740
H      0.889244    3.940613    3.142456
H      2.435396    3.245761    3.640791
H      1.357034    3.925435    4.846194
H     -0.267721    3.234255    6.376504
H     -2.590116    3.616227    7.062582
H     -4.461130    2.845580    5.627171
H     -3.987549    1.683790    3.505656
H     -2.368428    0.643155    2.086992
H     -1.080152   -0.146430    0.255520
H     -0.025598   -2.589322   -0.413716
H      0.177174   -3.785353   -2.521439
H     -0.350381   -4.035279   -4.800334
H      1.972311   -4.759696   -8.122737
H      3.746449   -3.216803   -7.223274
H      2.670631   -0.621653   -4.071566
H      2.462178    0.573012   -1.949563
H      3.201343   -0.031296    0.613467
H      2.999877    1.173930    2.719489
