28

O     -1.609869    2.220489   -0.931773
C     -0.603975    1.541194   -0.761713
C      0.685335    2.179129   -0.439208
C      0.781139    3.570302   -0.312060
C      2.011310    4.156131   -0.005938
C      3.129751    3.344358    0.168934
O      4.349449    3.874333    0.468507
C      3.040015    1.961129    0.043476
C      1.811005    1.378401   -0.261861
O      1.774427    0.012890   -0.375749
C      0.566579   -0.571054   -0.672524
C     -0.606714    0.053576   -0.862799
C     -1.823796   -0.713743   -1.188487
C     -2.210919   -1.818367   -0.411792
C     -3.363300   -2.544955   -0.728046
C     -4.139955   -2.170270   -1.821462
Cl    -5.556973   -3.064386   -2.210566
C     -3.776296   -1.074315   -2.598884
C     -2.623473   -0.349000   -2.281916
H     -0.099109    4.195012   -0.450211
H      2.075882    5.235766    0.091024
H      4.268708    4.841007    0.526316
H      3.922887    1.344060    0.182980
H      0.699347   -1.644462   -0.742573
H     -1.627185   -2.118164    0.456212
H     -3.650110   -3.395233   -0.115025
H     -4.384159   -0.773024   -3.447800
H     -2.360295    0.511263   -2.895439
