48

Si     3.536148   -1.000048    6.078161
C      2.869558   -2.741712    6.031853
C      2.098128   -2.931559    4.944231
C      1.574632   -4.230063    4.552018
C      0.950118   -4.370658    3.368348
C      0.745438   -3.202164    2.566204
S      0.043296   -3.306089    1.018988
C     -0.000873   -1.587157    0.790667
C      0.505015   -1.005104    1.961654
C      0.343113    0.418803    2.057540
C      0.493234    1.277038    3.104393
O      0.183893    2.539487    2.675618
C     -0.206246    2.436991    1.368369
C     -0.162242    1.124025    0.952333
C     -0.577288    0.635074   -0.296766
C     -1.068500    1.461503   -1.387392
C     -1.516617    0.955980   -2.631277
C     -2.020743    1.784322   -3.720694
C     -3.039865    2.715381   -3.518827
C     -3.467167    3.499618   -4.588057
C     -2.865668    3.341026   -5.829124
C     -1.858833    2.399611   -5.948900
N     -1.426826    1.625121   -4.929881
C     -1.419816   -0.441593   -2.648070
C     -1.784334   -1.259926   -3.690994
N     -1.524472   -2.551036   -3.311590
C     -1.014286   -2.574843   -2.031792
C     -0.941354   -1.279407   -1.570511
C     -0.483159   -0.810498   -0.320605
C      1.090852   -1.894127    2.898547
C      1.899587   -1.726199    4.082977
C      2.644874   -0.671463    4.466388
H      2.976142   -0.208367    7.199454
H      5.010261   -0.953205    5.930389
H      3.167178   -3.478462    6.760958
H      1.741747   -5.085542    5.197373
H      0.585300   -5.338002    3.039069
H      0.753189    1.202626    4.148509
H     -0.502706    3.370659    0.912038
H     -1.082930    2.542496   -1.251065
H     -3.506174    2.824454   -2.544804
H     -4.262885    4.226008   -4.450979
H     -3.172784    3.935179   -6.682144
H     -1.354138    2.236710   -6.896770
H     -2.184655   -1.042731   -4.672616
H     -1.677879   -3.367246   -3.889117
H     -0.756065   -3.529305   -1.600953
H      2.795124    0.261147    3.951234
