48

C      6.769217    1.549174   -1.569473
S      6.086693    2.160375   -0.114784
C      4.528735    1.538538   -0.494671
C      4.525263    0.879052   -1.702400
C      3.394527    0.268590   -2.275279
C      3.701519   -0.332934   -3.523655
C      5.000497   -0.315412   -4.128039
C      6.130360    0.301267   -3.549518
C      5.828803    0.889399   -2.321217
C      2.066073    0.238940   -1.663277
C      1.747211   -0.873052   -0.867858
C      0.490980   -0.937543   -0.263092
N     -0.016027   -1.920238    0.546576
C     -1.293013   -1.623993    0.948314
C     -1.627141   -0.396413    0.374430
C     -2.917102    0.110263    0.658531
C     -3.809682   -0.600493    1.481790
C     -3.464042   -1.827322    2.049900
C     -4.382169   -2.528057    2.878923
C     -4.105892   -3.768974    3.486844
C     -2.828597   -4.320479    3.234917
N     -2.372026   -5.486257    3.716856
S     -0.831624   -5.667673    3.128117
N     -0.670866   -4.277417    2.233360
C     -1.831268   -3.602987    2.360138
C     -2.170023   -2.349618    1.773207
C     -0.485504    0.049765   -0.404875
C     -0.163815    1.188768   -1.222831
C     -1.093239    2.235669   -1.422463
C     -0.788187    3.343295   -2.213933
C      0.451440    3.432639   -2.825684
C      1.387017    2.413600   -2.645919
C      1.115818    1.274654   -1.849783
H      7.816643    1.712208   -1.782252
H      3.709421    1.698742    0.193381
H      2.899676   -0.839876   -4.063532
H      5.119273   -0.809503   -5.093098
H      7.103368    0.303182   -4.022379
H      2.472195   -1.670516   -0.721207
H      0.474094   -2.761516    0.823139
H     -3.251761    1.057148    0.251114
H     -4.790154   -0.164794    1.668054
H     -5.364758   -2.090257    3.064841
H     -4.828742   -4.276996    4.113863
H     -2.073295    2.211364   -0.966532
H     -1.521746    4.133523   -2.349449
H      0.697208    4.292296   -3.443296
H      2.348758    2.523904   -3.144028
