41

C      0.889130    4.386178   -1.525814
C     -0.157248    5.161083   -0.793529
C     -0.832434    4.333663    0.015349
C     -1.989333    4.655208    0.803975
C     -2.627715    3.669939    1.454339
C     -2.115991    2.291184    1.412614
C     -2.762723    1.234689    2.059019
C     -3.952444    1.264789    2.748751
N     -4.197089   -0.011176    3.205575
C     -3.176124   -0.852729    2.824260
C     -2.272943   -0.102507    2.108118
C     -1.053145   -0.540592    1.544177
C     -0.554212   -1.859823    1.637993
C      0.685750   -2.144094    1.093069
N      1.421343   -1.187018    0.495075
C      0.907656    0.075767    0.422435
C     -0.345210    0.508931    0.878726
C     -0.894760    1.875373    0.753215
C     -0.280549    2.974757   -0.060977
C      0.684629    2.993006   -0.999492
C      1.264995   -3.485432    1.148260
C      0.990519   -4.493872    2.006985
C      1.739837   -5.724386    1.802190
C      2.617363   -5.698519    0.784299
Si     2.604257   -4.020695   -0.081392
H      1.893417    4.752746   -1.294673
H      0.721785    4.424134   -2.606300
H     -0.362325    6.208840   -0.949959
H     -2.351423    5.676571    0.833392
H     -3.513714    3.888855    2.037266
H     -4.656390    2.057833    2.959236
H     -5.006378   -0.288121    3.746566
H     -3.199811   -1.895858    3.107367
H     -1.134713   -2.631070    2.128555
H      1.623157    0.765999   -0.004545
H      1.245806    2.166515   -1.398471
H      0.274804   -4.434927    2.817494
H      1.583271   -6.585211    2.440591
H      3.270537   -6.493123    0.461226
H      2.113861   -4.169679   -1.476462
H      3.920353   -3.353539    0.092857
