48

C     -1.556648    0.222397    2.489556
O     -2.845530    0.546552    2.809346
C     -3.477817    0.908477    1.653679
C     -2.601521    0.828516    0.601474
C     -2.861212    1.078259   -0.748754
C     -1.699776    0.832883   -1.523184
C     -0.439053    0.397567   -0.979140
C     -0.180992    0.166683    0.402614
C      1.108618   -0.261611    0.928587
C      1.705188    0.314544    2.045996
C      2.953036   -0.148021    2.471364
C      3.607822   -1.170781    1.776433
C      2.937891   -1.667020    0.659233
N      1.723318   -1.241970    0.226082
C      4.907975   -1.687655    2.212736
C      5.188303   -2.028376    3.561912
C      6.433808   -2.526471    4.015146
C      7.528976   -2.732685    3.163945
C      7.326270   -2.413239    1.801518
N      8.244814   -2.536851    0.831441
S      7.520004   -2.027363   -0.570627
N      6.009352   -1.632626   -0.013991
C      5.997347   -1.881819    1.308174
C     -1.346833    0.398476    1.144296
C     -4.132265    1.518079   -1.276446
C     -4.669009    2.815432   -1.063942
C     -5.922980    3.268384   -1.589138
C     -6.776350    2.474247   -2.382829
C     -6.252141    1.198854   -2.590332
C     -6.909703    0.246428   -3.328866
S     -6.016862   -1.220554   -3.389238
C     -4.748680   -0.576714   -2.421736
C     -4.989801    0.731360   -2.067429
H     -0.952425   -0.113188    3.320257
H     -4.521222    1.172008    1.757407
H     -1.753259    0.980385   -2.603552
H      0.380659    0.235806   -1.683733
H      1.226712    1.131379    2.576830
H      3.415362    0.315818    3.339799
H      3.365004   -2.463052    0.053034
H      4.396109   -1.916890    4.305293
H      6.545296   -2.763309    5.073958
H      8.477591   -3.114577    3.521716
H     -4.090697    3.523960   -0.467820
H     -6.231608    4.289442   -1.361511
H     -7.720079    2.834206   -2.770380
H     -7.862165    0.317824   -3.835603
H     -3.904080   -1.204844   -2.172931
