36

O      3.269916   -3.696447   -0.304937
C      2.654942   -3.075830    0.554554
C      3.074265   -3.142733    1.976229
C      2.387173   -2.428801    2.874232
N      1.325423   -1.619448    2.573029
C      0.822935   -1.550719    1.264866
C     -0.276851   -0.744287    0.956943
C     -0.748772   -0.638376   -0.364180
C     -1.898831    0.207455   -0.673510
C     -3.202199   -0.326697   -0.747675
C     -4.305747    0.479599   -1.033218
C     -4.153825    1.849031   -1.255395
C     -2.858138    2.357455   -1.181216
O     -2.530507    3.662102   -1.370303
C     -1.182744    3.765045   -1.224197
N     -0.526070    4.933311   -1.351265
C      0.806843    4.815848   -1.174448
C      1.485250    3.639143   -0.887858
C      0.761820    2.452856   -0.762992
C     -0.632705    2.515878   -0.936893
C     -1.726782    1.594783   -0.902842
C     -0.096522   -1.355313   -1.380318
C      1.012407   -2.151948   -1.090636
C      1.470457   -2.240757    0.225783
H      3.916022   -3.773099    2.226061
H      2.647393   -2.452441    3.928827
H      0.766118   -1.248786    3.332892
H     -0.774150   -0.184318    1.746207
H     -3.356974   -1.391476   -0.577129
H     -5.298182    0.036144   -1.082796
H     -4.997294    2.492438   -1.477643
H      1.356406    5.749576   -1.275603
H      2.563586    3.643674   -0.764841
H      1.267886    1.518605   -0.543318
H     -0.446593   -1.286900   -2.409206
H      1.516765   -2.696357   -1.885816
