40

C     -4.685924    1.015979    0.463276
C     -4.994053   -0.330648    0.683766
C     -3.791108   -1.023320    0.454005
C     -3.299733   -2.284056    0.446557
S     -1.625955   -2.180867   -0.017057
C     -1.645529   -0.449915   -0.176979
C     -0.480492    0.335700   -0.563097
C     -0.341769    1.686687   -0.271060
C      0.816541    2.355631   -0.678101
C      1.833768    1.684054   -1.368430
C      1.588269    0.335682   -1.618123
N      0.478999   -0.346437   -1.231864
C      3.063710    2.372390   -1.800978
C      4.285660    1.720500   -1.977791
C      5.399432    2.450887   -2.391284
C      5.274883    3.813929   -2.617419
C      4.036865    4.393493   -2.414080
N      2.942951    3.709456   -2.011296
C     -2.895941   -0.034560    0.116506
O     -3.371374    1.244309    0.105423
C     -3.945453   -3.523400    0.759117
S     -3.848506   -4.908138   -0.269933
C     -4.855218   -5.867333    0.746896
C     -5.246887   -5.149484    1.839578
S     -6.282952   -5.605613    3.239939
C     -5.966904   -3.972671    3.809744
C     -5.153702   -3.177658    2.993530
C     -4.727321   -3.854901    1.817828
H     -5.287872    1.914158    0.515022
H     -5.961984   -0.725223    0.958244
H     -1.105184    2.234211    0.270638
H      0.922218    3.414791   -0.448580
H      2.293758   -0.276863   -2.173334
H      4.395337    0.658631   -1.784286
H      6.356827    1.956594   -2.530973
H      6.120820    4.410204   -2.939821
H      3.883322    5.457007   -2.573430
H     -5.109793   -6.891325    0.510917
H     -6.412861   -3.686878    4.752868
H     -4.886532   -2.162033    3.258943
