48

Si     4.406242    0.938190   -0.498571
C      2.976432    1.261414   -1.648336
C      1.793159    1.083395   -1.024919
C      0.499036    1.097612   -1.688300
C      0.197661    1.643495   -3.019016
C     -1.098661    1.617965   -3.379808
Si    -2.136310    0.856700   -2.032443
C     -0.572325    0.583559   -1.021834
C     -0.486577    0.122792    0.376849
C     -1.440682   -0.609973    1.098981
C     -2.546489   -1.278250    0.623635
N     -3.173583   -1.883302    1.689802
C     -2.469131   -1.646503    2.843640
C     -1.374850   -0.881150    2.509990
C     -0.384624   -0.412137    3.404530
C     -0.413489   -0.664245    4.835018
C      0.518660   -0.137636    5.739997
C      1.417414    0.706047    5.100165
C      2.342824    1.422700    5.820239
S      3.219713    2.493524    4.811225
C      2.345532    1.997846    3.418325
C      1.477322    0.957641    3.673590
C      0.627299    0.348708    2.684461
C      0.649378    0.446304    1.206353
C      1.891323    0.739610    0.416413
C      3.160865    0.524011    0.825894
C     -1.636358    2.092991   -4.598027
C     -1.004187    2.691023   -5.686522
C     -1.983897    2.986924   -6.663679
C     -3.173646    2.559757   -6.137121
O     -2.980860    2.025567   -4.908624
H      5.172525    2.170097   -0.192027
H      5.214165   -0.233564   -0.914009
H      3.145844    1.471281   -2.691574
H      0.992119    2.048745   -3.631464
H     -3.061308    1.822088   -1.381339
H     -2.768103   -0.421733   -2.459000
H     -2.954797   -1.428809   -0.363298
H     -4.015517   -2.441394    1.626034
H     -2.815917   -2.058147    3.780988
H     -1.208759   -1.284897    5.244871
H      0.473847   -0.323266    6.804536
H      2.531287    1.410352    6.884975
H      2.533322    2.516215    2.489831
H      3.494212    0.140361    1.776513
H      0.055371    2.891995   -5.762847
H     -1.838182    3.452719   -7.627686
H     -4.195091    2.563281   -6.490688
