38

N      2.162988    0.026626    0.136795
C      0.822744   -0.245632    0.006571
N      0.252842   -0.998912   -0.969160
C     -1.051431   -0.963168   -0.726323
C     -2.061646   -1.619039   -1.560479
C     -1.900011   -2.976724   -1.873375
C     -2.845749   -3.648617   -2.652743
C     -3.963975   -2.969519   -3.133491
C     -4.128652   -1.614377   -2.851611
C     -3.168773   -0.939331   -2.092238
O     -3.373349    0.395039   -1.841375
C     -2.767404    1.179420   -2.872227
N     -1.300544   -0.248548    0.435472
C     -0.099700    0.239605    0.878801
C      0.239732    1.066882    1.985200
N      1.615275    1.297885    2.088816
C      2.596469    0.830226    1.191051
O      3.785747    1.127544    1.338095
C      2.085772    2.132874    3.176737
O     -0.596746    1.530210    2.754853
C     -2.567608   -0.080509    1.107825
C      3.109191   -0.495555   -0.832233
H     -1.030377   -3.517484   -1.503736
H     -2.708659   -4.702946   -2.880605
H     -4.703864   -3.494565   -3.732375
H     -4.997988   -1.082533   -3.228286
H     -2.911180    2.233606   -2.616883
H     -3.248070    0.996042   -3.839421
H     -1.690235    0.991993   -2.940691
H      1.298873    2.361256    3.899980
H      2.905367    1.626097    3.696714
H      2.467507    3.069823    2.757843
H     -2.419422   -0.211817    2.182678
H     -2.940156    0.923813    0.893332
H     -3.279584   -0.835733    0.770102
H      4.140748   -0.247070   -0.569400
H      3.014169   -1.585250   -0.877780
H      2.884920   -0.066333   -1.813934
