38

C     -3.109269    0.986137    0.338109
C     -1.943779    0.095158   -0.061116
C     -1.636763   -1.028398   -0.840247
C     -0.264421   -1.253394   -0.694605
N      0.252484   -0.295493    0.171233
C     -0.766399    0.503699    0.531709
C     -1.016437    1.630010    1.330608
O     -0.338552    2.467248    2.130636
C     -1.291848    3.352759    2.577551
C     -1.088056    4.421183    3.441036
C     -2.228183    5.168422    3.737686
C     -3.453100    4.814278    3.174097
N     -3.670742    3.776973    2.330905
C     -2.558101    3.056392    2.048244
C     -2.364544    1.938076    1.242176
C      0.628560   -2.235558   -1.214900
C      0.288792   -3.534441   -1.026762
C      1.120379   -4.653689   -1.465420
C      2.296036   -4.468292   -2.092351
C      2.737994   -3.114635   -2.353366
C      3.873957   -2.784122   -2.994940
Si     4.025527   -0.927711   -3.156130
C      2.392570   -0.763247   -2.256966
C      1.894942   -1.971687   -1.919354
H     -3.533472    1.499678   -0.528397
H     -3.872171    0.424298    0.882924
H     -2.308990   -1.617044   -1.450709
H      1.216661   -0.227090    0.470006
H     -0.112531    4.649472    3.849089
H     -2.164600    6.022765    4.404575
H     -4.343307    5.396423    3.404772
H     -0.627296   -3.805185   -0.507275
H      0.756360   -5.655447   -1.259116
H      2.906192   -5.305239   -2.411690
H      4.618283   -3.451444   -3.398558
H      3.949383   -0.471819   -4.564810
H      5.156345   -0.383694   -2.365924
H      1.950277    0.204464   -2.083885
