34

C      0.991947    0.968669   -2.029664
C      2.381469    0.558902   -1.909725
C      2.873304   -0.137556   -0.899318
B      1.888514   -0.556151    0.260266
C      2.264190   -1.795248    1.127874
C      3.111734   -2.792982    0.693916
C      3.439277   -3.890384    1.473072
C      2.893660   -3.990268    2.739696
C      2.042884   -3.004510    3.196295
C      1.732163   -1.916514    2.394697
N      0.448267   -0.103749    0.087369
C      0.044091    0.644615   -1.051963
C     -1.245456    1.073802   -1.249117
C     -2.222955    0.786453   -0.323053
C     -3.548456    1.216268   -0.505793
C     -3.899887    1.937129   -1.619605
C     -2.942290    2.237768   -2.560412
C     -1.637847    1.799433   -2.353634
C     -0.686765    2.105446   -3.301055
C      0.613988    1.697429   -3.145897
H      3.079151    0.844406   -2.711850
H      3.899686   -0.430700   -0.827466
H      3.514060   -2.662806   -0.315262
H      4.115969   -4.650094    1.077522
H      3.158276   -4.862574    3.350193
H      1.628263   -3.116310    4.206575
H      1.064217   -1.150058    2.763115
H     -0.220101   -0.365053    0.834361
H     -1.961706    0.225287    0.549323
H     -4.291820    0.968937    0.249018
H     -4.934508    2.276974   -1.769882
H     -3.203921    2.802188   -3.438349
H     -0.997722    2.677151   -4.170498
H      1.322568    1.970905   -3.931604
