49

C     -3.783159    6.124413   -1.562317
C     -3.168926    5.868138   -0.337882
C     -2.642797    4.602315   -0.071582
C     -2.727207    3.576750   -1.025944
C     -3.345824    3.851140   -2.255472
C     -3.871807    5.117117   -2.521326
C     -2.166771    2.242496   -0.747428
C     -0.826442    2.018699   -1.102249
C     -0.197763    0.794142   -0.883467
C      1.141980    0.642773   -1.263019
C      1.829427   -0.558016   -1.071349
C      1.162350   -1.644630   -0.482576
C     -0.173169   -1.464819   -0.114176
O     -0.637241   -2.624542    0.434331
C      0.364264   -3.534131    0.424625
C      0.240269   -4.831494    0.910928
C      1.370461   -5.644887    0.826682
C      2.572206   -5.176559    0.278411
C      3.692569   -6.018577    0.207189
C      4.896242   -5.567624   -0.335723
C      4.998954   -4.266798   -0.816366
C      3.898665   -3.409244   -0.756959
C      2.670728   -3.843074   -0.212119
C      1.517505   -2.996831   -0.131759
C     -0.931867   -0.261550   -0.283729
C     -2.316302   -0.065213    0.094764
C     -3.128326   -1.061685    0.699254
C     -4.461416   -0.843131    1.053553
C     -5.038419    0.388620    0.815619
C     -4.277791    1.393744    0.224716
C     -2.922926    1.201263   -0.145555
H     -4.192949    7.109637   -1.769281
H     -3.099123    6.652705    0.411003
H     -2.167050    4.413529    0.888766
H     -3.422560    3.072035   -3.011349
H     -4.350606    5.315507   -3.476648
H     -0.270739    2.836255   -1.562572
H      1.679470    1.472242   -1.721576
H      2.865476   -0.623778   -1.382513
H     -0.691765   -5.187115    1.333539
H      1.300060   -6.665122    1.200376
H      3.638094   -7.040744    0.576421
H      5.753613   -6.234234   -0.382572
H      5.937270   -3.916578   -1.239129
H      4.019193   -2.404216   -1.141567
H     -2.734345   -2.050024    0.912391
H     -5.038306   -1.640594    1.513816
H     -6.074080    0.573868    1.085539
H     -4.766895    2.351331    0.052795
