46

C      1.388643    0.386341    0.000318
C      0.303355    0.304607   -1.054354
C      0.854960    0.528701   -2.262598
C      2.270657    0.764204   -2.126304
C      2.603980    0.690160   -0.829851
C      3.935542    0.864607   -0.255581
C      4.827441   -0.212766   -0.370407
C      6.106686   -0.132928    0.169558
C      6.508987    1.026261    0.828249
C      5.643945    2.124596    0.949833
C      6.069576    3.288584    1.612000
C      5.229350    4.394320    1.734217
C      3.952425    4.353326    1.190790
C      3.514021    3.203467    0.530168
C      4.338439    2.060309    0.399708
C     -1.102406    0.025053   -0.737533
C     -2.089665   -0.062349   -1.719875
C     -3.419112   -0.331597   -1.374610
C     -3.761500   -0.520080   -0.039114
N     -2.823074   -0.424997    0.935195
C     -1.539944   -0.166591    0.569732
C     -5.116094   -0.790983    0.439823
C     -5.565943   -0.426716    1.722460
N     -6.806291   -0.618599    2.289688
C     -7.789989   -1.252162    1.595706
C     -7.496848   -1.699537    0.294122
N     -8.337839   -2.346471   -0.528955
S     -7.489428   -2.656773   -1.917352
N     -6.028103   -1.971589   -1.544350
C     -6.125113   -1.464348   -0.299877
H      1.503615   -0.567915    0.526013
H      1.183361    1.186187    0.719308
H      0.358198    0.542277   -3.220626
H      2.936152    0.969688   -2.951563
H      4.522297   -1.126437   -0.876382
H      6.789021   -0.974018    0.080748
H      7.512826    1.068076    1.246025
H      7.068673    3.343361    2.039424
H      5.575070    5.286544    2.249575
H      3.294975    5.214649    1.275361
H      2.512578    3.211493    0.105642
H     -1.853071    0.076751   -2.770932
H     -4.162955   -0.376134   -2.163582
H     -0.856049   -0.118056    1.413030
H     -4.875850    0.086069    2.396863
H     -8.748001   -1.385330    2.080053
