46

C     -1.973156   -0.151440    4.807878
C     -3.010575   -0.786132    3.933684
C     -2.556903   -0.879207    2.672004
C     -3.230959   -1.437240    1.487175
C     -2.540269   -1.427540    0.319535
C     -1.214857   -0.890152    0.290799
O     -0.428629   -0.831914   -0.828152
C      0.774247   -0.257665   -0.503727
C      0.725020    0.042506    0.845401
C      1.870228    0.654795    1.431654
N      1.953158    0.992274    2.707138
S      3.480635    1.653276    2.833016
N      4.005879    1.494191    1.256971
C      3.003521    0.914797    0.558719
C      3.014070    0.587523   -0.835806
C      4.141690    0.864938   -1.623533
C      4.142362    0.543567   -2.976345
C      3.030962   -0.057590   -3.580545
C      3.087625   -0.359729   -4.951638
C      2.013080   -0.956381   -5.603886
C      0.865724   -1.258449   -4.889445
C      0.795750   -0.963379   -3.524204
C      1.867019   -0.355880   -2.819083
C      1.861366   -0.024125   -1.410306
C     -0.513665   -0.344161    1.370903
C     -1.188202   -0.326311    2.624106
C     -0.847565    0.095681    3.848580
C     -4.567685   -1.968797    1.472965
C     -5.136098   -2.968545    0.682591
C     -6.491789   -3.118567    1.059286
C     -6.700296   -2.211119    2.063353
O     -5.563900   -1.523600    2.321673
H     -2.338495    0.786012    5.237211
H     -1.665320   -0.829013    5.609624
H     -3.975910   -1.111539    4.290859
H     -2.950050   -1.793247   -0.614584
H      5.023516    1.331833   -1.188392
H      5.032155    0.771203   -3.561162
H      3.980466   -0.129589   -5.530215
H      2.074263   -1.182649   -6.664736
H      0.018676   -1.724014   -5.386579
H     -0.129847   -1.223592   -3.020988
H      0.081796    0.545975    4.150456
H     -4.618846   -3.535811   -0.079156
H     -7.220950   -3.804164    0.651767
H     -7.555370   -1.945007    2.668802
