37

O      0.082724   -1.429857    0.866068
C     -0.710431   -0.500835    0.761344
C     -1.982632   -0.665642   -0.018758
S     -2.949189   -1.986472    0.661606
O     -3.006747   -1.783495    2.099828
O     -4.200479   -2.007186   -0.080104
C     -2.073622   -3.525783    0.345808
C     -1.713160   -3.660263   -1.111326
C     -2.696603   -3.904534   -2.080862
C     -2.354639   -4.016843   -3.429302
C     -1.024765   -3.899807   -3.824897
C     -0.035831   -3.674877   -2.870805
C     -0.376115   -3.561766   -1.522150
N     -0.552432    0.771101    1.269494
C      0.480240    1.234089    2.046525
N      0.504335    2.487535    2.433059
C      1.622705    2.707966    3.220116
C      1.983811    3.930645    3.820605
C      3.142012    4.005583    4.600911
C      3.942426    2.881052    4.784922
C      3.608215    1.657570    4.196433
C      2.441906    1.594078    3.417273
S      1.766074    0.254878    2.572611
H     -1.765836   -0.856463   -1.071378
H     -2.607333    0.231430    0.038889
H     -2.738162   -4.343343    0.647791
H     -1.196148   -3.563694    0.995822
H     -3.744023   -4.004165   -1.795066
H     -3.128146   -4.199291   -4.171287
H     -0.758250   -3.992891   -4.876392
H      1.005017   -3.591342   -3.176681
H      0.417304   -3.395469   -0.794317
H     -1.247270    1.486705    1.101290
H      1.358116    4.804959    3.673841
H      3.414206    4.949426    5.068671
H      4.839387    2.952652    5.396336
H      4.231793    0.779116    4.343171
