45

Si     1.225128    4.883149    3.902453
C      2.580671    3.608094    4.044693
C      2.281573    2.506261    3.330213
C      3.210461    1.401133    3.133505
C      2.894149    0.399112    2.292391
C      1.608906    0.421583    1.672027
O      1.169146   -0.493841    0.763649
C     -0.116472   -0.186706    0.456497
C     -0.898640   -0.857473   -0.462972
Si    -0.393184   -2.248625   -1.538178
C     -2.151704   -2.242904   -2.242611
C     -2.916134   -1.275395   -1.692639
C     -2.238275   -0.463179   -0.650210
C     -2.800796    0.557696    0.137744
C     -4.157004    0.941065    0.037966
C     -4.711809    1.898569    0.887989
C     -3.931318    2.479950    1.875817
C     -2.584475    2.134744    1.990384
C     -1.978725    1.217103    1.106178
C     -0.577621    0.898573    1.206469
C      0.601307    1.373075    1.871069
C      0.946462    2.529385    2.654009
C      0.306237    3.708196    2.772262
C     -2.616123   -3.102040   -3.262877
C     -3.455624   -2.912306   -4.346406
C     -3.580391   -4.146759   -5.027578
C     -2.829970   -5.069168   -4.337163
N     -2.257764   -4.432373   -3.265679
H      0.512870    5.099456    5.184493
H      1.672139    6.109618    3.200404
H      3.493127    3.813882    4.581470
H      4.171924    1.422880    3.634988
H      3.569917   -0.423477    2.092934
H     -0.135752   -3.534994   -0.834596
H      0.615037   -1.898671   -2.572332
H     -3.945646   -1.095990   -1.969190
H     -4.813188    0.482144   -0.696826
H     -5.761528    2.164524    0.794249
H     -4.370730    3.191886    2.569584
H     -2.029263    2.551556    2.821859
H     -0.597105    4.030056    2.284942
H     -3.921978   -1.975692   -4.624012
H     -4.159879   -4.340524   -5.920720
H     -2.659172   -6.123300   -4.508942
H     -1.681553   -4.887725   -2.570458
