38

Si    -1.131191   -3.281456   -2.996468
C     -1.617427   -5.112760   -2.748080
C     -1.690156   -5.477425   -1.452256
C     -1.376155   -4.371126   -0.556139
C     -1.055049   -3.129560   -1.167749
C     -0.739268   -2.007860   -0.396301
O     -0.410124   -0.749807   -0.820614
C     -0.185180    0.007494    0.301682
C      0.174393    1.348631    0.293119
C      0.351204    1.916337    1.549597
N      0.184710    1.212058    2.704064
C     -0.167603   -0.099407    2.680620
C     -0.363390   -0.741114    1.464118
C     -0.711324   -2.003911    0.989489
C     -1.027480   -3.230074    1.643622
C     -1.095112   -3.577033    2.954820
O     -1.450030   -4.904504    3.010518
C     -1.596221   -5.356256    1.718934
C     -1.340859   -4.339866    0.831384
C      0.730883    3.317116    1.743033
S      0.953480    4.041575    3.316665
C      1.361624    5.603400    2.676446
C      1.313823    5.514485    1.332351
C      1.509462    6.317790    0.199792
C      1.262670    5.470954   -0.886682
O      0.921928    4.178920   -0.532861
C      0.973608    4.281492    0.826655
H     -2.245500   -2.532987   -3.629826
H      0.184349   -3.184552   -3.676903
H     -1.802025   -5.739143   -3.607368
H     -1.948342   -6.465617   -1.099443
H      0.299065    1.881011   -0.637461
H     -0.278074   -0.581069    3.644661
H     -0.946171   -3.090568    3.907360
H     -1.876827   -6.396007    1.626516
H      1.596824    6.436031    3.323700
H      1.788469    7.360119    0.144428
H      1.288909    5.639416   -1.955588
