42

Si    -0.034370    2.207502    0.023260
C     -1.502617    1.771319   -1.050249
C     -1.468653    0.485568   -1.442738
C     -0.303563   -0.251529   -0.934684
N     -0.176244   -1.540632   -1.251336
C      0.929208   -2.166604   -0.765019
C      1.950098   -1.614994    0.036479
C      3.116845   -2.417639    0.493524
C      3.326291   -3.775169    0.140612
C      4.430185   -4.524273    0.580445
C      5.388819   -3.953012    1.404491
C      5.253553   -2.625891    1.786464
C      4.139783   -1.875164    1.335524
C      3.896068   -0.527071    1.648691
C      4.664387    0.291650    2.437639
O      4.099624    1.529964    2.504434
C      2.959644    1.495568    1.752680
C      2.787513    0.248969    1.200104
C      1.738849   -0.224482    0.364220
C      0.602362    0.457334   -0.136606
C     -2.515432    2.684294   -1.397957
S     -2.236492    4.229107   -2.154269
C     -3.928271    4.625054   -2.229409
C     -4.612249    3.595120   -1.692795
C     -5.936081    3.182314   -1.404041
C     -5.848526    1.914599   -0.790353
N     -4.525869    1.492196   -0.669103
C     -3.853490    2.540043   -1.235662
H     -0.416529    2.517497    1.426468
H      0.894850    3.192511   -0.587003
H     -2.182738   -0.006418   -2.086607
H      0.952710   -3.210328   -1.066041
H      2.626252   -4.301071   -0.504272
H      4.533583   -5.562323    0.270528
H      6.239376   -4.538473    1.742232
H      6.008745   -2.179319    2.425844
H      5.581953    0.174138    2.995422
H      2.421978    2.430658    1.738663
H     -4.274795    5.555635   -2.653288
H     -6.854421    3.717959   -1.604199
H     -6.638161    1.268411   -0.428493
H     -4.135359    0.641466   -0.283351
