22

C     -2.262971    2.957104   -3.320277
N     -1.551558    3.018602   -2.217645
C     -1.231977    1.737385   -1.802789
C     -0.483799    1.398995   -0.667963
C     -0.232618    0.061793   -0.362184
S      0.643951   -0.621062    0.949800
C      0.317726   -2.192271    0.349300
C      0.819264   -3.482856    1.044626
C      1.581253   -3.647130    2.211493
N      1.806373   -4.937365    2.479916
O      1.174319   -5.638538    1.460542
C      0.587571   -4.759628    0.608258
N     -0.394776   -2.245877   -0.754527
C     -0.715268   -0.966025   -1.170874
C     -1.463500   -0.628654   -2.305862
C     -1.715082    0.708650   -2.612235
S     -2.593293    1.390419   -3.926798
H     -2.623981    3.844889   -3.823323
H     -0.104051    2.194336   -0.032521
H      1.984998   -2.901025    2.880974
H      0.061793   -5.191236   -0.230404
H     -1.844130   -1.422503   -2.942601
