22

S     -1.422131   -1.400145    5.460653
C     -1.607750   -1.698285    3.857862
N     -1.472809   -2.861932    3.163452
N     -1.721939   -2.661494    1.840164
C     -1.990868   -1.389828    1.792558
C     -2.349240   -0.597323    0.571978
O     -1.672039    0.646092    0.476854
C     -0.350220    0.640671    0.129017
C      0.256682    1.900823    0.152242
C      1.605812    2.050219   -0.177180
C      2.353052    0.932289   -0.533988
Cl     4.014838    1.105772   -0.941459
C      1.759535   -0.327816   -0.563695
C      0.407003   -0.474896   -0.233400
O     -1.952422   -0.730237    2.975121
H     -1.222372   -3.769108    3.539310
H     -3.419608   -0.373682    0.646494
H     -2.226094   -1.196253   -0.337376
H     -0.326423    2.775390    0.432638
H      2.061631    3.036087   -0.151889
H      2.342338   -1.201775   -0.843673
H     -0.012493   -1.474841   -0.274704
