26

C     -2.059365   -2.127434    2.350500
C     -2.115354   -1.567206    1.083494
C     -1.085592   -0.676325    0.788428
N     -0.834570    0.053230   -0.348244
C      0.312113    0.804316   -0.209898
C      0.957257    1.683932   -1.086978
C      0.467346    1.927486   -2.414987
C      0.156645    3.128890   -3.084325
N     -0.252327    2.913976   -4.337443
O     -0.184532    1.540882   -4.514346
C      0.254913    0.961614   -3.368557
C      2.086152    2.312040   -0.573258
N      2.583928    2.113443    0.668696
C      1.953311    1.244293    1.496491
C      0.796743    0.569778    1.080546
C     -0.079214   -0.373739    1.704419
C     -0.115563   -0.993177    2.960540
N     -1.105566   -1.866193    3.270754
H     -2.819392   -2.835174    2.672837
H     -2.904878   -1.810079    0.384392
H     -1.420488    0.046874   -1.171546
H      0.199785    4.145364   -2.717789
H      0.368115   -0.112160   -3.405498
H      2.657800    3.016559   -1.173476
H      2.391251    1.116523    2.480441
H      0.624372   -0.814525    3.732423
