37

C     -5.190079    2.070578    2.191962
C     -4.093587    1.599809    1.459156
C     -4.014635    2.153859    0.145347
C     -3.174928    2.028564   -0.920380
S     -3.785584    3.065187   -2.173362
C     -5.113430    3.612723   -1.237530
C     -5.097659    3.027267   -0.006863
S     -6.231985    3.221136    1.379956
C     -1.984017    1.243742   -1.129633
C     -1.163213    1.157952   -2.250126
C     -0.153552    0.254215   -1.916209
C      0.947969   -0.199914   -2.692733
N      1.160110    0.219635   -3.929836
S      2.549663   -0.612691   -4.352928
N      2.830215   -1.474242   -2.950656
C      1.854056   -1.161622   -2.069842
C      1.681444   -1.660638   -0.725073
C      0.557211   -1.149964   -0.033722
N      0.209886   -1.480794    1.227944
C      1.018192   -2.366794    1.843807
C      2.153809   -2.940198    1.268948
C      2.950089   -3.858172    1.972546
C      4.070594   -4.405671    1.366099
C      4.354040   -4.014087    0.075635
N      3.603912   -3.133235   -0.621674
C      2.506538   -2.586710   -0.049924
C     -0.307949   -0.225992   -0.640712
N     -1.445822    0.399923   -0.174897
H     -5.455612    1.795523    3.203913
H     -3.406055    0.888192    1.892855
H     -5.836671    4.323507   -1.612735
H     -1.287294    1.686650   -3.187015
H      0.717271   -2.616987    2.858761
H      2.701006   -4.148159    2.990477
H      4.704073   -5.116486    1.884056
H      5.216832   -4.405329   -0.456319
H     -1.807440    0.235948    0.751605
