40

Si    -3.237196   -3.103236   -2.193350
C     -2.183413   -1.684899   -2.761442
C     -1.419012   -1.214540   -1.756454
C     -0.497371   -0.135548   -1.843545
C     -0.128409    0.705395   -2.916117
C      0.820119    1.590961   -2.435029
N      1.016480    1.289005   -1.104066
C      0.219497    0.236392   -0.725463
C      0.125731   -0.391938    0.599165
C      0.901716    0.068162    1.663527
C      0.798470   -0.538846    2.906722
C     -0.078138   -1.610772    3.105335
C     -0.155939   -2.199665    4.375759
C     -1.014658   -3.262293    4.602187
C     -1.770402   -3.700795    3.541221
N     -1.717340   -3.154335    2.307330
C     -0.885897   -2.111313    2.052202
C     -0.779960   -1.489721    0.779748
C     -1.577490   -1.912843   -0.440412
C     -2.483308   -2.915037   -0.502648
C      1.522391    2.647828   -3.096830
C      2.470453    3.534231   -2.619121
C      2.850487    4.385730   -3.686656
C      2.127383    4.001407   -4.791319
N      1.327685    2.950422   -4.424639
H     -2.868317   -4.379466   -2.853405
H     -4.684118   -2.777506   -2.222044
H     -2.218900   -1.325141   -3.776398
H     -0.513909    0.666030   -3.924958
H      1.659498    1.781183   -0.503526
H      1.592660    0.896784    1.548292
H      1.412022   -0.165577    3.724255
H      0.453916   -1.832404    5.197887
H     -1.090204   -3.731589    5.575633
H     -2.464086   -4.529458    3.648690
H     -2.795957   -3.579546    0.284329
H      2.857844    3.575829   -1.610447
H      3.573013    5.190691   -3.650996
H      2.110992    4.381818   -5.803683
H      0.686887    2.465326   -5.036859
