36

O      3.829320   -1.254985   -3.586017
C      2.608349   -1.177000   -3.570154
C      1.836405   -1.292027   -4.823040
C      0.505406   -1.188706   -4.840555
C     -0.270829   -0.951682   -3.608046
O     -1.486296   -0.818269   -3.656137
C      0.467950   -0.867990   -2.333268
C     -0.239363   -0.679652   -1.136132
C      0.435595   -0.576610    0.091774
C     -0.296689   -0.382859    1.343596
C     -0.190292   -1.248072    2.435547
N     -0.837895   -1.118906    3.616881
C     -1.673656   -0.068382    3.787926
C     -1.859627    0.870193    2.765238
C     -1.167995    0.696578    1.563146
N     -1.515334    1.755486    0.751241
C     -2.412408    2.586217    1.376631
C     -3.029259    3.753229    0.931163
C     -3.889585    4.344817    1.843418
N     -4.147967    3.872939    3.082643
C     -3.535177    2.734524    3.491823
C     -2.647793    2.058202    2.644466
C      1.837410   -0.676269    0.087211
C      2.544822   -0.871063   -1.103767
C      1.857058   -0.967952   -2.316657
H      2.410393   -1.461150   -5.727103
H     -0.063580   -1.267858   -5.759971
H     -1.328580   -0.630958   -1.162850
H      0.451645   -2.125559    2.381675
H     -2.173439   -0.004377    4.748051
H     -1.157976    1.900576   -0.182298
H     -2.857571    4.173930   -0.050887
H     -4.418623    5.259405    1.586606
H     -3.774810    2.394972    4.492997
H      2.396502   -0.595051    1.019542
H      3.631169   -0.945449   -1.078590
