36

C     -2.455758   -0.194751    5.810924
C     -1.144262   -0.593360    5.845914
N     -0.618378   -0.412654    4.594580
C     -1.566917    0.102360    3.726819
C     -2.720179    0.239241    4.489824
C     -1.287175    0.400632    2.309926
C     -0.002383    0.174187    1.734116
C      0.200668    0.477033    0.384902
O      1.359800    0.325212   -0.329578
C      1.057597    0.757887   -1.603939
C     -0.246204    1.171354   -1.702104
S     -0.624225    1.716966   -3.312440
C      1.000490    1.380498   -3.854319
C      1.573974    1.557122   -5.143231
C      2.925712    1.224554   -5.398517
C      3.609262    0.722702   -4.287690
C      4.931724    0.346330   -4.347831
S      5.505446   -0.234509   -2.822459
C      3.977316    0.014097   -2.060675
C      3.105931    0.520037   -2.979474
C      1.741114    0.877923   -2.803832
C     -0.763735    0.981950   -0.427428
C     -2.065221    1.246294    0.025926
N     -3.029324    1.736632   -0.732628
S     -4.310701    1.828151    0.340723
N     -3.592109    1.240800    1.730586
C     -2.307510    0.937612    1.440155
H     -3.150623   -0.211785    6.640474
H     -0.539119   -0.989416    6.650341
H      0.337067   -0.631159    4.352972
H     -3.674046    0.615459    4.143545
H      0.825348   -0.225714    2.306977
H      0.962997    1.955890   -5.951070
H      3.368109    1.357106   -6.378957
H      5.607623    0.372741   -5.191621
H      3.835298   -0.224845   -1.016147
