26

C     -0.458884    4.331812    2.775989
C     -1.844482    4.219527    2.754474
C     -2.448892    3.168661    2.057170
C     -1.686025    2.208919    1.367586
N     -2.365530    1.180427    0.688661
C     -1.872947    0.149499   -0.038942
N     -0.614731   -0.134578   -0.284442
C     -0.504338   -1.268812   -1.067649
C      0.699091   -1.850755   -1.515469
C      0.662450   -3.004143   -2.305936
C     -0.555011   -3.581033   -2.653225
C     -1.762052   -3.022328   -2.221216
C     -1.711532   -1.863850   -1.427810
S     -3.000693   -0.953001   -0.750718
C     -0.293908    2.344042    1.404525
C      0.316107    3.394154    2.101085
H      0.016679    5.145901    3.315885
H     -2.457692    4.947388    3.278841
H     -3.534410    3.108198    2.059201
H     -3.372706    1.231428    0.764066
H      1.646026   -1.396376   -1.241451
H      1.593175   -3.449757   -2.649221
H     -0.569938   -4.478266   -3.268681
H     -2.711584   -3.473287   -2.492781
H      0.351504    1.636621    0.892904
H      1.400088    3.473037    2.111766
