32

C     -4.148346    0.321390    3.179931
N     -3.080401    1.299448    2.981238
C     -3.513475    2.684463    2.806663
C     -1.872114    0.887008    2.409854
C     -0.887296    1.804944    2.003901
C      0.333761    1.399935    1.440720
C      0.618264    0.046934    1.258597
C     -0.324231   -0.885712    1.689230
C     -1.541535   -0.469894    2.250987
C      1.877980   -0.410268    0.678238
N      2.653596   -1.356157    1.183297
N      3.758733   -1.502832    0.378188
C      3.631517   -0.668785   -0.627672
N      2.440513    0.035677   -0.506053
C      2.003653    0.955332   -1.464230
C      2.772863    1.201041   -2.539109
C      4.041235    0.501256   -2.675022
C      4.449962   -0.397426   -1.758200
H     -4.474699   -0.104123    2.224578
H     -3.830214   -0.482477    3.852496
H     -5.023594    0.779409    3.654378
H     -4.489268    2.859915    3.273519
H     -3.606937    2.936758    1.744564
H     -2.819954    3.380258    3.290727
H     -1.035973    2.872984    2.131625
H      1.061528    2.162862    1.174832
H     -0.119802   -1.951264    1.597308
H     -2.222847   -1.253967    2.567178
H      1.044907    1.433253   -1.311774
H      2.473553    1.900936   -3.312454
H      4.651764    0.720134   -3.546356
H      5.390646   -0.927086   -1.857774
