39

C     -1.024530   -1.911453   -4.144694
C     -1.404564   -2.617938   -2.844405
C     -2.927006   -2.854890   -2.733023
O     -3.704638   -1.722326   -3.103146
N     -0.845795   -1.913779   -1.686972
C      0.455044   -2.328756   -1.102849
C      0.656617   -1.245327   -0.120650
C     -0.364078   -0.338566   -0.195586
N     -0.172603    0.659007    0.698064
C     -0.944979    1.782916    0.966007
C     -0.548339    2.647652    1.915543
C      0.691145    2.388213    2.650186
C      1.435593    1.290514    2.380866
C      1.020727    0.366283    1.371967
C      1.557312   -0.822692    0.874077
C      2.810613   -1.492372    1.302903
C      1.200195    3.310010    3.726895
C      0.404725    4.549639    4.048959
O      2.242332    3.065647    4.337116
C     -1.319352   -0.695574   -1.182047
O     -2.323449   -0.090220   -1.518909
H     -1.411618   -2.457274   -5.011239
H     -1.413367   -0.888379   -4.181791
H      0.064524   -1.848180   -4.245204
H     -0.936234   -3.610644   -2.838164
H     -3.207601   -3.154680   -1.717620
H     -3.215861   -3.665800   -3.410130
H     -3.405767   -0.973478   -2.541635
H      1.218564   -2.331113   -1.885082
H      0.343016   -3.313238   -0.642399
H     -1.850575    1.913387    0.384764
H     -1.144050    3.526458    2.131454
H      2.357888    1.086910    2.919270
H      3.670393   -0.833440    1.145137
H      2.981888   -2.413507    0.736778
H      2.762042   -1.752248    2.365169
H      0.337988    5.194600    3.169062
H     -0.590323    4.276328    4.409231
H      0.911877    5.108417    4.841755
