38

C      0.922236   -1.587338    2.443234
C      0.309589   -2.026648    1.139720
C      0.123825   -3.403109    0.920497
C     -0.446001   -3.870676   -0.261420
C     -0.841784   -2.969788   -1.241012
C     -0.661894   -1.600215   -1.042714
C     -0.072873   -1.099205    0.138301
C      0.117770    0.408873    0.348116
N      0.219385    1.175016   -0.869269
C      1.289295    1.263776   -1.739755
N      1.346487    1.964122   -2.848588
C      2.574213    1.806567   -3.456469
C      3.458488    0.984863   -2.795978
S      2.725990    0.392579   -1.367100
C     -0.958988    1.869907   -1.134483
O     -1.262020    2.577481   -2.083086
C     -1.896610    1.575765    0.027417
C     -2.506850    2.824875    0.651042
C     -1.950863    2.858181    2.067040
C     -0.662089    2.067820    1.960283
N     -1.041654    0.964026    1.068895
H      1.898029   -1.124164    2.267195
H      1.078217   -2.434492    3.119958
H      0.265097   -0.881516    2.959518
H      0.419512   -4.125501    1.678820
H     -0.585863   -4.937542   -0.413585
H     -1.293281   -3.329801   -2.161996
H     -0.989314   -0.929062   -1.834191
H      1.035488    0.570690    0.926232
H      2.771386    2.320509   -4.389428
H      4.465962    0.714327   -3.076395
H     -2.662187    0.869749   -0.312361
H     -2.221980    3.736400    0.113772
H     -3.600461    2.773781    0.674867
H     -2.647719    2.364135    2.755459
H     -1.788410    3.879682    2.423296
H     -0.328408    1.701100    2.935584
H      0.126957    2.702918    1.536676
