42

C     -1.346198    0.347723   -0.017404
C     -0.202661   -0.435636    0.640417
C      0.454642   -1.245142   -0.232564
Si     1.800271   -2.175973    0.526834
C      1.327821   -1.301850    2.182153
C      0.285185   -0.456653    1.999113
C      2.014286   -1.485720    3.405976
S      2.652229   -3.049631    3.903780
C      3.270811   -2.468435    5.410649
C      2.982663   -1.159258    5.486781
O      3.296924   -0.323388    6.513153
C      2.762779    0.854147    6.023421
C      2.157874    0.730008    4.766171
C      2.307400   -0.626381    4.417235
C     -0.172015   -1.063840   -1.456066
N     -0.019880   -1.551397   -2.699887
C     -0.990235   -0.955587   -3.503061
C     -1.237491   -1.136780   -4.867693
C     -2.284109   -0.412280   -5.447647
C     -3.072756    0.473054   -4.701112
C     -4.120289    1.193593   -5.296738
C     -4.902616    2.074504   -4.545726
C     -4.651389    2.250080   -3.187305
C     -3.616118    1.545618   -2.572265
C     -2.818528    0.653287   -3.318274
C     -1.757185   -0.074452   -2.707353
C     -1.208725   -0.169762   -1.413732
H     -1.171598    1.425730    0.036028
H     -2.312375    0.083776    0.421074
H      3.152051   -1.776329    0.054377
H      1.562412   -3.642737    0.571748
H     -0.167739    0.153884    2.768773
H      3.788375   -3.087132    6.128711
H      2.893578    1.701646    6.683671
H      1.690123    1.525852    4.205221
H      0.662642   -2.224821   -3.018408
H     -0.640121   -1.817199   -5.466102
H     -2.479845   -0.550482   -6.509498
H     -4.336628    1.073826   -6.355945
H     -5.709521    2.623722   -5.023954
H     -5.261675    2.935684   -2.605520
H     -3.436748    1.696370   -1.512272
