30

O     -7.021832   -2.176892    0.587283
C     -5.927069   -2.627158    0.905264
C     -5.827294   -3.888213    1.681489
C     -4.610205   -4.338809    2.004388
N     -3.441032   -3.714801    1.667260
C     -3.443603   -2.519657    0.935152
C     -2.248647   -1.880037    0.589453
C     -2.240143   -0.676928   -0.147103
C     -0.934534   -0.060906   -0.474080
N      0.223498   -0.579879   -0.111578
C      1.273513    0.206527   -0.552766
C      2.643822   -0.049327   -0.343241
C      3.601963    0.835766   -0.848415
C      3.210811    1.967544   -1.556689
C      1.857631    2.242804   -1.777443
C      0.904999    1.346324   -1.265080
S     -0.808582    1.406468   -1.367968
C     -3.477163   -0.127960   -0.531018
C     -4.681024   -0.755568   -0.193025
C     -4.659460   -1.944765    0.536171
H     -6.745634   -4.389274    1.952983
H     -4.481947   -5.256512    2.571405
H     -2.558711   -4.123827    1.951800
H     -1.301452   -2.321330    0.896254
H      2.944390   -0.933493    0.209880
H      4.658247    0.635111   -0.684800
H      3.965974    2.648320   -1.944551
H      1.553505    3.126382   -2.330346
H     -3.535792    0.797015   -1.099808
H     -5.629070   -0.317438   -0.497918
