39

C      0.010068    0.319446    5.567375
C     -1.428809   -0.083589    5.680554
C     -1.918474   -0.321486    4.457058
C     -3.218365   -0.726587    4.045925
C     -4.411728   -1.013231    4.736373
C     -5.349228   -1.358131    3.779329
N     -4.754866   -1.287006    2.538386
C     -3.454478   -0.902033    2.695456
C     -2.445006   -0.692703    1.696052
S     -2.661256   -0.887204    0.035354
C     -1.026058   -0.445025   -0.293231
C     -0.428809   -0.375295   -1.563874
C      0.906233    0.001530   -1.634584
N      1.603466    0.290841   -0.511229
C      1.025463    0.222907    0.712636
C     -0.315026   -0.148145    0.874827
C     -1.155354   -0.296105    2.037064
C     -0.863480   -0.100396    3.441762
C      0.255715    0.271309    4.083141
C      1.668699    0.118330   -2.909205
C      3.025125    0.507778   -2.901157
C      3.772497    0.628088   -4.078137
C      3.181488    0.360658   -5.306391
C      1.847084   -0.025695   -5.354373
C      1.103030   -0.144666   -4.172686
H      0.659327   -0.385583    6.094830
H      0.168297    1.329010    5.957966
H     -1.972526   -0.165217    6.608714
H     -4.582346   -0.976854    5.804008
H     -6.387259   -1.647958    3.872730
H     -5.203595   -1.486134    1.653999
H     -1.014534   -0.613055   -2.441393
H      1.680082    0.476133    1.536053
H      1.211404    0.510462    3.650542
H      3.521103    0.725405   -1.955802
H      4.814924    0.930989   -4.026777
H      3.758523    0.452962   -6.222296
H      1.378275   -0.236535   -6.312328
H      0.066052   -0.450059   -4.274508
