32

N     -1.190373    2.033597    3.824539
C     -1.630108    1.332741    3.010243
C     -2.211982    0.473782    2.016228
C     -3.589032    0.581714    1.765377
C     -4.200206   -0.232100    0.811779
C     -3.441823   -1.159605    0.103990
C     -2.071692   -1.273259    0.347529
C     -1.433358   -0.459027    1.301701
C      0.007309   -0.611501    1.519405
C      0.509507   -1.461361    2.527939
C      1.881368   -1.611728    2.738286
C      2.806153   -0.924608    1.950968
C      2.291037   -0.092083    0.959165
O      3.046316    0.647230    0.103654
C      2.188014    1.322984   -0.704648
C      2.568321    2.197505   -1.720981
C      1.538122    2.800851   -2.447545
C      0.199808    2.530076   -2.157603
C     -0.151617    1.644310   -1.128134
C      0.868997    1.022733   -0.379874
C      0.933038    0.093787    0.710275
H     -4.193043    1.302327    2.314918
H     -5.267673   -0.143646    0.623089
H     -3.915051   -1.797198   -0.639388
H     -1.493537   -2.003491   -0.217785
H     -0.182501   -2.013565    3.162539
H      2.236023   -2.270799    3.528012
H      3.874701   -1.025775    2.099526
H      3.612427    2.396296   -1.930061
H      1.785176    3.492967   -3.249830
H     -0.584032    3.013786   -2.736904
H     -1.199076    1.449658   -0.920453
