41

Si    -3.108860   -3.039259    0.875074
C     -1.909141   -2.672358    2.252350
C     -1.085727   -1.644418    1.960878
C     -0.034698   -1.082231    2.782063
C      0.388210   -1.435468    4.128213
C     -0.065981   -2.399458    5.070617
C      0.533992   -2.541047    6.328373
C      1.596877   -1.733554    6.689104
C      2.073009   -0.772501    5.801221
C      1.462613   -0.634622    4.535608
S      1.913122    0.494644    3.330108
C      0.711410   -0.035246    2.249016
C      0.520922    0.576992    0.912179
C      1.312651    1.635222    0.434984
C      1.092155    2.186257   -0.830173
C      0.071385    1.698688   -1.646827
C     -0.716503    0.636075   -1.186055
C     -0.508647    0.067863    0.084891
C     -1.327565   -1.060985    0.603135
C     -2.328337   -1.652934   -0.085905
C     -0.145680    2.280548   -2.965971
C      0.721783    2.278993   -3.999743
C      0.252147    2.943456   -5.205940
C     -0.981392    3.474903   -5.126016
Si    -1.741938    3.186795   -3.427743
H     -2.874149   -4.365897    0.256954
H     -4.512383   -2.750369    1.254619
H     -1.952590   -3.277627    3.135997
H     -0.897535   -3.054117    4.843528
H      0.159338   -3.289578    7.022314
H      2.061126   -1.845070    7.665576
H      2.906133   -0.133871    6.082411
H      2.116324    2.054903    1.034007
H      1.723273    3.006105   -1.167302
H     -1.491306    0.244199   -1.838477
H     -2.690582   -1.423166   -1.073712
H      1.703256    1.820751   -3.969483
H      0.873730    2.991338   -6.091713
H     -1.512397    4.006072   -5.899849
H     -1.929059    4.457210   -2.683524
H     -2.915098    2.278153   -3.492231
