44

C      0.844467   -0.024903   -3.764386
C      1.525305    1.302960   -3.710251
C      1.518552    1.754594   -2.447535
C      2.061181    2.982721   -1.942295
C      2.749520    4.053835   -2.625665
C      3.076739    5.006493   -1.744443
C      2.606175    4.605404   -0.376483
C      1.959905    3.272633   -0.624648
C      1.299968    2.358015    0.335177
C      1.152371    2.583405    1.719349
C      1.595581    3.690337    2.416016
S      1.243042    3.634714    4.106153
C      0.477346    2.109937    3.957277
C      0.521382    1.713990    2.650033
C     -0.028021    0.480814    2.164747
C     -0.680630   -0.475453    2.971668
C     -1.101017   -1.558224    2.221738
S     -0.671971   -1.339169    0.576696
C      0.086472    0.202511    0.809783
C      0.728942    1.097764   -0.110141
C      0.848966    0.792789   -1.565790
C      0.456425   -0.242940   -2.331021
C     -1.801299   -2.727456    2.698232
S     -2.246615   -2.965985    4.372124
C     -2.993461   -4.506020    4.085072
C     -2.879329   -4.771799    2.768714
C     -3.223370   -5.771763    1.847895
C     -2.744729   -5.305517    0.618503
O     -2.117199   -4.076353    0.683649
C     -2.236954   -3.814868    2.017586
H      1.526910   -0.806466   -4.110808
H     -0.037610    0.007928   -4.410478
H      1.949901    1.803597   -4.566124
H      2.958661    4.066516   -3.683983
H      3.597756    5.923986   -1.971433
H      1.889286    5.344185   -0.005335
H      3.465387    4.523763    0.296247
H      2.117402    4.568967    2.081012
H      0.057686    1.623457    4.825889
H     -0.842051   -0.393226    4.038394
H     -0.065132   -1.134219   -2.029908
H     -3.443860   -5.076359    4.884871
H     -3.741491   -6.704674    2.016519
H     -2.773756   -5.728155   -0.377463
