37

C     -2.200151    0.713475    1.064502
C     -3.721066    0.777314    1.210562
C     -4.336805    0.006646    0.286259
C     -3.360326   -0.621212   -0.532944
C     -2.072889   -0.215797   -0.096869
C     -1.057717   -0.744171   -0.854386
S     -1.729852   -1.756231   -2.088093
C     -3.368429   -1.467615   -1.607309
C     -4.487735   -2.079244   -2.270998
C     -5.659741   -2.547474   -1.702352
N     -6.595482   -3.077992   -2.571998
C     -6.121849   -3.014252   -3.795836
S     -4.564281   -2.324505   -3.972163
C      0.361997   -0.549695   -0.695007
C      1.051996   -0.433474    0.494501
C      2.450512   -0.228662    0.299833
C      2.811264   -0.186514   -1.034946
S      1.425505   -0.400182   -2.028533
C      4.129686    0.008392   -1.582949
S      4.595192   -0.326873   -3.230143
C      6.246024    0.160240   -2.993813
C      6.373893    0.547633   -1.708933
C      7.348143    1.042634   -0.829801
C      6.679644    1.210906    0.388618
O      5.343211    0.858578    0.356456
C      5.233030    0.465362   -0.945950
H     -1.788938    1.701964    0.841858
H     -1.745617    0.302728    1.970029
H     -4.222951    1.374973    1.957193
H     -5.406636   -0.102025    0.175134
H     -5.886625   -2.534516   -0.643180
H     -6.679558   -3.375085   -4.650153
H      0.587124   -0.505029    1.469718
H      3.154894   -0.123856    1.116436
H      6.967203    0.123989   -3.797729
H      8.389623    1.258732   -1.019523
H      7.014541    1.567423    1.354150
