36

C      2.399114    6.102800   -2.092526
C      3.541113    5.398746   -1.704244
C      3.438854    4.065174   -1.303953
C      2.192699    3.440315   -1.293715
C      1.052598    4.143168   -1.681278
C      1.152209    5.474898   -2.081376
O     -0.193989    3.569432   -1.686893
C     -0.241810    2.258473   -1.286691
C     -1.483932    1.631847   -1.275018
C     -1.583416    0.295598   -0.874071
C     -0.445515   -0.433460   -0.480848
C     -0.555238   -1.836787   -0.060537
C      0.239346   -2.838711   -0.605893
N      0.189299   -4.148676   -0.260243
C     -0.680906   -4.536332    0.671836
N     -0.720152   -5.828420    1.003559
C     -1.595706   -6.235977    1.948019
C     -2.468234   -5.393234    2.605337
C     -2.436778   -4.049132    2.268675
C     -1.536022   -3.603745    1.290086
C     -1.464000   -2.251869    0.913597
C      0.798549    0.220986   -0.501401
C      0.895875    1.555589   -0.900889
O      2.142862    2.128904   -0.892786
H      2.480930    7.141210   -2.404207
H      4.511372    5.889335   -1.713816
H      4.326394    3.516422   -1.001989
H      0.263339    6.021341   -2.383401
H     -2.372604    2.177599   -1.579809
H     -2.563112   -0.179465   -0.884966
H      0.970105   -2.616624   -1.380897
H     -1.571275   -7.300117    2.166628
H     -3.150920   -5.772836    3.356835
H     -3.108983   -3.355164    2.766185
H     -2.111677   -1.522185    1.394962
H      1.702890   -0.299873   -0.193337
