29

O      0.666029   -0.659633   -1.277273
C     -0.204551    0.159141   -1.003619
N     -1.537857    0.070824   -1.367087
C     -2.112710   -0.970057   -2.130118
C     -3.011430   -0.569560   -3.132299
F     -3.273687    0.737205   -3.296515
C     -3.619121   -1.480156   -3.986967
C     -3.343857   -2.826975   -3.824772
F     -3.922703   -3.720191   -4.636877
C     -2.502491   -3.269997   -2.810395
C     -1.897755   -2.345988   -1.946821
Br    -1.005684   -3.087953   -0.438623
C      0.119431    1.409499   -0.309072
C      1.375208    1.797453    0.221586
C      1.153345    3.039301    0.757328
C      2.205724    3.925063    1.466310
C      1.836157    4.590068    2.766055
C      2.813863    3.451288    2.760336
O     -0.143484    3.390241    0.556878
N     -0.800940    2.372046   -0.112919
H     -2.002343    0.977354   -1.408547
H     -4.292368   -1.142814   -4.766168
H     -2.353697   -4.339122   -2.685072
H      2.298391    1.237225    0.209023
H      2.842939    4.487564    0.791512
H      0.850273    4.411120    3.180890
H      2.216745    5.588372    2.949085
H      2.487855    2.505819    3.179126
H      3.858423    3.677599    2.941310
