49

Si    -3.421703    1.108190    4.906206
C     -3.865675    2.843128    5.487580
C     -3.555870    3.764210    4.557103
C     -2.961842    3.239384    3.336988
C     -2.795369    1.900240    3.304721
C     -2.238522    1.119693    2.206363
C     -2.839239    1.149687    0.949489
C     -2.313652    0.408331   -0.123662
C     -1.149705   -0.389954   -0.024155
C     -0.591736   -0.428165    1.286115
C     -1.107181    0.326007    2.373807
C      0.532878   -1.273937    1.346427
C      1.367396   -1.426388    2.430382
N      2.398972   -2.242218    2.037853
C      2.228719   -2.603978    0.722224
C      1.020762   -2.102866    0.287207
C      0.477431   -2.221067   -1.022925
C      0.901166   -3.172183   -2.119490
C      1.580957   -4.438696   -2.056009
C      1.723514   -5.184691   -0.906056
S      2.589259   -6.646292   -1.161128
C      2.647300   -6.389621   -2.853452
C      2.026984   -5.212995   -3.198710
C      1.843834   -4.872743   -4.532378
C      1.067670   -3.712577   -4.651709
C      0.598598   -2.935194   -3.515421
C     -0.246499   -1.815357   -3.622983
C     -0.722406   -1.278056   -4.794422
O     -1.472578   -0.176589   -4.529922
C     -1.483208   -0.013158   -3.177293
C     -0.790407   -1.026132   -2.552521
C     -0.542554   -1.173084   -1.154552
H     -2.328194    0.515127    5.717831
H     -4.629188    0.267607    4.709983
H     -4.310330    3.018464    6.454218
H     -3.724749    4.826997    4.680230
H     -2.678793    3.906777    2.531614
H     -3.742391    1.735780    0.788500
H     -2.891560    0.430587   -1.040990
H     -0.612701    0.283951    3.339958
H      1.360670   -1.000529    3.424114
H      3.196835   -2.489221    2.609593
H      3.006762   -3.166636    0.225826
H      1.367088   -4.974566    0.091255
H      3.093324   -7.135965   -3.496529
H      2.174390   -5.451172   -5.384445
H      0.797951   -3.396685   -5.658613
H     -0.617456   -1.516901   -5.842965
H     -1.995977    0.880251   -2.856535
