49

Si    -5.486513   -1.892864   -1.429946
C     -6.949103   -1.165879   -0.377164
C     -8.272480   -1.583082   -0.320435
C     -9.142801   -0.888657    0.523420
C     -8.691881    0.199570    1.291606
C     -7.358704    0.620024    1.234588
C     -6.489678   -0.062588    0.401106
C     -5.073165    0.197164    0.185168
N     -4.230563    1.133358    0.702220
C     -2.981092    0.915970    0.144857
C     -1.685741    1.491688    0.234193
C     -0.804776    0.805114   -0.582045
S     -1.530081   -0.482867   -1.470334
C     -3.049057   -0.148320   -0.722007
C     -4.371535   -0.601479   -0.693716
C      0.592914    1.106646   -0.756371
S      0.980681    2.177785   -2.051842
C      2.643413    2.127566   -1.697953
C      2.920961    1.325609   -0.615004
C      1.726722    0.714840   -0.051989
C      1.774266   -0.165511    1.087173
C      0.670129   -0.819234    1.705280
C      0.835229   -1.648997    2.808160
C      2.101221   -1.848000    3.320497
C      3.201773   -1.219496    2.727295
C      3.108613   -0.362076    1.600155
C      4.305236    0.269563    1.012403
C      5.617090    0.070534    1.520329
C      6.762845    0.663717    0.970073
C      6.657357    1.496626   -0.129587
C      5.405468    1.736461   -0.678616
C      4.240107    1.136913   -0.123384
H     -5.187360   -3.286727   -1.008977
H     -5.759674   -1.728960   -2.881723
H     -8.631360   -2.421482   -0.909304
H    -10.185342   -1.192646    0.588267
H     -9.392228    0.721691    1.939625
H     -7.026639    1.460798    1.832670
H     -4.433996    1.866489    1.369121
H     -1.412602    2.337903    0.851574
H      3.315162    2.703099   -2.317193
H     -0.340987   -0.703927    1.339991
H     -0.024883   -2.137043    3.258144
H      2.245930   -2.495031    4.181883
H      4.160612   -1.432627    3.190639
H      5.792167   -0.568971    2.380584
H      7.736875    0.465776    1.411015
H      7.543000    1.956784   -0.558379
H      5.345632    2.392597   -1.541361
