40

C      5.349545    0.956995   -5.497350
C      4.153647    1.164260   -6.188322
C      2.939353    1.170500   -5.499399
C      2.926158    0.969082   -4.119951
C      4.120013    0.762347   -3.430150
C      5.333801    0.755622   -4.115917
O      4.155716    0.560309   -2.073355
C      2.937951    0.576238   -1.442222
C      2.922012    0.377621   -0.065134
C      1.704208    0.385194    0.622400
C      0.487566    0.589976   -0.054245
C     -0.791880    0.595139    0.673498
C     -1.853973   -0.230031    0.279076
C     -3.073021   -0.228261    0.972762
C     -3.281508    0.603283    2.086191
C     -4.557653    0.626506    2.828954
C     -5.796170    0.342554    2.250921
N     -6.969926    0.359571    2.935011
C     -6.866018    0.682070    4.240861
C     -5.651673    0.976202    4.832329
N     -4.484451    0.958239    4.147188
C     -2.207910    1.420884    2.479890
C     -0.989305    1.419850    1.788245
C      0.528857    0.788273   -1.445100
C      1.745259    0.781287   -2.130325
O      1.708491    0.983651   -3.487456
H      6.294266    0.952552   -6.035441
H      4.167833    1.321159   -7.264073
H      2.008448    1.331821   -6.035393
H      6.263090    0.594469   -3.577063
H      3.850937    0.214446    0.473820
H      1.708811    0.216470    1.698009
H     -1.735889   -0.902683   -0.568897
H     -3.848257   -0.911599    0.632978
H     -5.895015    0.101674    1.198220
H     -7.791786    0.700241    4.804090
H     -5.581049    1.236367    5.882193
H     -2.316864    2.079661    3.341010
H     -0.196293    2.083084    2.128486
H     -0.388788    0.962032   -2.002302
