30

O     -0.426266   -7.034145    0.680631
C      0.039560   -6.054040    0.136619
N      1.017475   -5.996268   -0.807132
C      1.289097   -4.719336   -1.194306
O      2.103697   -4.346309   -2.012662
C      0.395046   -3.855875   -0.422354
C      0.249451   -2.482108   -0.418925
C     -0.709161   -1.916669    0.444507
C     -0.870087   -0.455116    0.453932
N     -0.176505    0.391444   -0.295291
C     -0.636725    1.638079    0.022530
N     -0.230573    2.826623   -0.484911
C     -0.875405    3.903373    0.026842
N     -0.684011    5.221593   -0.287457
C     -1.541516    5.875055    0.470258
N     -2.279928    5.034125    1.261926
C     -1.868568    3.764140    0.993282
N     -2.302297    2.601716    1.524573
C     -1.633239    1.561276    0.985991
N     -1.768212    0.233241    1.247142
C     -1.484386   -2.770944    1.272817
C     -1.317585   -4.163526    1.250917
C     -0.368087   -4.673198    0.390700
H      1.489248   -6.804670   -1.179494
H      0.863743   -1.862997   -1.069555
H     -1.673027    6.949428    0.489867
H     -2.996048    5.294547    1.922992
H     -2.418163   -0.157706    1.909340
H     -2.232895   -2.368473    1.950882
H     -1.908769   -4.819085    1.882999
