39

C      0.915827    5.314917    5.069902
C      0.197886    5.452713    3.905101
C      0.253501    4.284035    3.073429
C     -0.332603    4.019102    1.822178
C     -0.134309    2.791285    1.196777
N     -0.606976    2.321291   -0.015082
C     -0.165239    1.037964   -0.253079
C     -0.386100    0.159248   -1.345654
C      0.191212   -1.133762   -1.357019
C      0.028205   -2.073155   -2.448706
S     -1.535988   -2.684048   -2.853015
C     -0.935485   -3.662756   -4.139942
C      0.416544   -3.515001   -4.257894
S      1.593779   -4.254839   -5.401839
C      2.796090   -3.298847   -4.542954
C      2.321510   -2.505661   -3.491743
C      0.918828   -2.627719   -3.307757
C      0.954387   -1.410693   -0.214906
C      1.615735   -2.583192    0.086600
N      2.232188   -2.425569    1.316236
C      1.974850   -1.168419    1.824164
C      1.191997   -0.565161    0.886638
C      0.600144    0.731148    0.860819
C      0.643118    1.788811    1.779438
C      1.226364    2.050833    3.023531
C      1.031539    3.283951    3.658794
S      1.663666    3.786802    5.180846
H      1.037186    6.039940    5.862767
H     -0.348463    6.352732    3.651992
H     -0.942956    4.783514    1.347742
H     -1.198088    2.848309   -0.640860
H     -0.996271    0.484463   -2.185146
H     -1.580622   -4.286549   -4.742694
H      3.820787   -3.380987   -4.878949
H      2.971007   -1.875020   -2.896145
H      1.707382   -3.521246   -0.444399
H      2.783831   -3.135742    1.779863
H      2.368350   -0.863422    2.782203
H      1.837034    1.294165    3.505605
