34

C      2.957700    3.715467   -4.714889
C      1.625993    3.400307   -4.491788
C      1.400930    2.498454   -3.453884
N      0.228618    1.972741   -2.964853
C      0.478698    1.111834   -1.922284
C     -0.395955    0.361175   -1.134966
C      0.197293   -0.422511   -0.145182
C     -0.600805   -1.263539    0.757181
N     -0.213939   -2.062373    1.741805
C     -1.379627   -2.586074    2.229211
C     -1.630219   -3.489007    3.265542
C     -2.953526   -3.825321    3.514518
O     -3.444181   -4.675049    4.461361
C     -4.792831   -4.631487    4.259776
N     -5.198792   -3.843716    3.286038
C     -4.030525   -3.318883    2.797616
C     -3.778571   -2.415992    1.761493
C     -2.454525   -2.080414    1.513469
O     -1.967490   -1.231214    0.566829
N      1.539333   -0.470199    0.060528
C      2.370295    0.267405   -0.716272
C      1.859096    1.081415   -1.732651
C      2.442963    1.957586   -2.700307
C      3.754651    2.342066   -3.007350
N      3.999364    3.218360   -4.012925
H      3.233165    4.411008   -5.504002
H      0.828956    3.828480   -5.085265
H     -0.690344    2.190391   -3.323789
H     -1.468088    0.388295   -1.286392
H     -0.819697   -3.908227    3.849928
H     -5.396073   -5.244459    4.915058
H     -4.588296   -1.996430    1.176769
H      3.429159    0.182702   -0.498464
H      4.622141    1.971093   -2.473451
