33

O     -3.409907   -3.228461    0.270274
C     -3.113753   -2.352042   -0.524525
C     -2.100970   -1.269009   -0.309467
C     -0.706670   -1.878513   -0.250014
C      0.360708   -0.821467    0.004165
C      0.722508   -0.489440    1.352167
C      1.733566    0.474736    1.566157
C      2.126231    0.820642    2.871424
C      1.528265    0.234153    3.983280
C      0.526212   -0.705169    3.801591
C      0.130449   -1.059576    2.508483
C      2.348231    1.096226    0.474016
C      1.983037    0.806557   -0.844939
C      2.620039    1.478616   -1.903238
C      2.274617    1.227668   -3.228089
C      1.283502    0.301262   -3.509898
C      0.645696   -0.375125   -2.465828
C      0.976861   -0.151633   -1.104615
O     -3.689163   -2.300755   -1.739614
H     -2.176235   -0.530139   -1.115794
H     -2.361196   -0.743960    0.616554
H     -0.656062   -2.664880    0.512222
H     -0.489466   -2.433193   -1.170500
H      2.908122    1.559909    3.033003
H      1.842833    0.513908    4.984766
H      0.047131   -1.166807    4.661075
H     -0.665910   -1.794516    2.426427
H      3.126055    1.836668    0.656458
H      3.396458    2.213765   -1.700016
H      2.775672    1.757594   -4.033340
H      0.999914    0.101112   -4.539780
H     -0.130668   -1.082272   -2.744944
H     -4.317350   -3.053619   -1.741386
