32

Si     5.659510   -0.547382   -2.146935
C      5.078132   -2.415576   -2.281065
C      3.787965   -2.580163   -1.909049
C      3.225147   -1.340734   -1.526195
N      1.946948   -1.115791   -1.092371
C      1.923593    0.220765   -0.860345
C      0.909762    1.002247   -0.414870
N     -0.348247    0.672824   -0.080573
C     -0.951652    1.861837    0.306229
C     -0.030358    2.911110    0.197282
C      1.173478    2.327467   -0.273732
S      2.821991    2.515080   -0.752821
C      3.112825    0.858116   -1.121566
C      3.956888   -0.161455   -1.554526
C     -2.319756    1.896285    0.735762
S     -3.164193    3.328847    1.237706
C     -4.651798    2.482025    1.556307
C     -4.446897    1.178829    1.274174
C     -5.128531   -0.047580    1.279482
C     -4.188911   -0.985091    0.831138
O     -2.947342   -0.450482    0.536324
C     -3.185742    0.862176    0.830441
H      6.736036   -0.440033   -1.129917
H      6.001652   -0.041307   -3.500296
H      5.777019   -3.161255   -2.623019
H      3.259904   -3.524579   -1.904321
H      1.185108   -1.768441   -0.966122
H     -0.768609   -0.247678   -0.105119
H     -0.201976    3.953901    0.425760
H     -5.529594    3.000031    1.915064
H     -6.150709   -0.255919    1.561109
H     -4.254934   -2.053722    0.672255
