44

Si     0.572502    3.418000   -4.727966
C      1.168407    5.126144   -4.322736
C      1.619948    5.194920   -3.061963
C      1.523522    3.928026   -2.321947
N      1.883735    3.936303   -1.044944
C      1.687617    2.769151   -0.397292
C      1.178803    1.556556   -0.926051
C      0.957595    0.413415   -0.084802
C      1.221139    0.418469    1.314286
C      0.978795   -0.673733    2.153948
C      0.444299   -1.848101    1.649737
C      0.198298   -1.868059    0.263613
C      0.438630   -0.778968   -0.634592
C      0.196299   -0.863559   -2.044322
C     -0.286989   -2.062451   -2.647231
C     -0.475335   -2.212992   -4.017068
C     -0.159945   -1.165209   -4.844769
C      0.301541    0.027566   -4.285714
C      0.454669    0.256328   -2.889223
C      0.880916    1.528524   -2.319864
C      1.024615    2.791571   -2.996733
C      0.164628   -3.030105    2.476925
N      0.230679   -4.270470    1.872644
C     -0.010706   -5.428847    2.561018
C     -0.353772   -5.553393    3.900162
C     -0.453206   -4.319593    4.567124
N     -0.779575   -4.169092    5.860613
S     -0.778874   -2.538948    6.161318
N     -0.356534   -1.951375    4.670901
C     -0.193085   -3.012340    3.857135
H      1.398030    2.799499   -5.795860
H     -0.887612    3.376700   -4.986585
H      1.140384    5.933430   -5.037837
H      2.017700    6.078484   -2.582645
H      1.971827    2.862723    0.645840
H      1.629464    1.292752    1.813581
H      1.228785   -0.572898    3.207686
H     -0.207544   -2.801266   -0.119837
H     -0.522595   -2.940631   -2.053542
H     -0.837792   -3.152851   -4.422947
H     -0.255632   -1.264685   -5.922462
H      0.589820    0.770742   -5.012945
H      0.088865   -6.325981    1.949758
H     -0.532977   -6.502870    4.383223
