36

C     -3.161883    1.438420   -1.032152
C     -3.530963    1.536298   -2.486832
C     -2.582110    0.957752   -3.238523
C     -1.536030    0.442336   -2.385595
C     -1.849663    0.709367   -1.095831
C     -0.992864    0.316394    0.001505
Si    -1.329229    0.633167    1.801150
C      0.320672   -0.245538    2.230040
C      0.897759   -0.648592    1.073000
C      0.183532   -0.345521   -0.172840
C      0.583815   -0.666627   -1.546353
C      1.705800   -1.313348   -1.921098
Si     1.786720   -1.493650   -3.781674
C      0.151431   -0.599677   -3.902009
C     -0.300649   -0.260966   -2.678989
C      0.786729   -0.403437    3.591147
C      0.213374    0.004485    4.748008
C      0.929983   -0.303780    5.977513
C      2.089570   -0.964213    5.823477
Si     2.441486   -1.297398    4.017137
H     -3.917138    0.869114   -0.481489
H     -3.052164    2.435963   -0.595558
H     -4.428928    2.004929   -2.859731
H     -2.581363    0.879046   -4.314383
H     -1.305716    2.076863    2.153815
H     -2.511134   -0.108584    2.313098
H      1.841678   -1.173705    1.010224
H      2.488518   -1.699392   -1.289607
H      1.694152   -2.908524   -4.215826
H      2.902980   -0.718846   -4.375459
H     -0.320561   -0.408386   -4.851772
H     -0.726910    0.536493    4.823618
H      0.530523   -0.007639    6.940079
H      2.762899   -1.282104    6.603543
H      2.399259   -2.744113    3.686400
H      3.625841   -0.552191    3.520973
