46

C      3.653677    0.653450   -2.443580
C      2.431682   -0.187478   -2.550864
C      1.956109   -0.875258   -3.653690
C      2.522754   -0.917291   -4.980649
C      2.886786   -2.040159   -5.700181
C      3.404577   -1.719447   -6.989560
C      3.412709   -0.362019   -7.216751
S      2.797365    0.515120   -5.884280
S      0.526330   -1.769825   -3.328736
C      0.496463   -1.182723   -1.686207
C     -0.374512   -1.360696   -0.560065
C     -1.591403   -2.208828   -0.662065
C      0.094312   -0.662880    0.538444
C     -0.485130   -0.641781    1.859206
C     -0.725251   -1.731005    2.672225
C     -1.324432   -1.360172    3.912427
C     -1.520499    0.003350    4.016705
C     -2.110774    0.717318    5.115829
S     -3.610554    0.187865    5.818561
C     -3.656489    1.488630    6.951256
C     -2.551159    2.270844    6.791300
C     -1.680924    1.840545    5.771467
C     -0.556348    2.743443    5.734562
O      0.415697    2.687868    5.000984
N     -0.818866    3.674827    6.729711
C      0.062671    4.777956    7.011323
C     -2.007415    3.454428    7.402328
O     -2.509780    4.095946    8.308144
S     -1.001756    0.812460    2.599361
S      1.536094    0.212038    0.222164
C      1.560977   -0.366073   -1.424186
H      4.429557    0.321739   -3.140907
H      3.415446    1.699156   -2.663049
H      4.092194    0.604370   -1.441648
H      2.791071   -3.049711   -5.318510
H      3.750691   -2.448057   -7.712255
H      3.747547    0.160163   -8.102612
H     -2.341516   -1.928005    0.084035
H     -1.333088   -3.261490   -0.507744
H     -2.069025   -2.109885   -1.642193
H     -0.477089   -2.748745    2.396177
H     -1.588137   -2.065799    4.691304
H     -4.472049    1.594531    7.654194
H     -0.059602    5.526299    6.221558
H      1.100058    4.429901    7.002641
H     -0.173960    5.229250    7.979086
