32

C     -0.136949   -4.132530   -2.204063
C     -0.881171   -5.387086   -2.561602
C     -1.910398   -5.553594   -1.721143
C     -1.933179   -4.468001   -0.775466
C     -0.918688   -3.615586   -1.018115
C     -0.723846   -2.455102   -0.216399
N     -1.461637   -2.077287    0.809886
C     -0.979289   -0.901757    1.349801
C      0.140100   -0.353052    0.747635
S      0.589978   -1.384094   -0.559657
C      0.888106    0.824230    1.035202
C      2.113798    1.384192    0.340597
C      2.415013    2.645140    1.126338
C      1.494641    2.756814    2.101023
C      0.568848    1.652768    2.045770
C      3.455413    3.600753    0.945675
C      3.769982    4.764229    1.635515
N      4.868738    5.476443    1.191925
C      5.392534    4.854602    0.162073
S      4.615674    3.410851   -0.324661
H      0.898389   -4.362320   -1.933036
H     -0.155180   -3.422678   -3.037105
H     -0.617931   -6.046947   -3.374408
H     -2.623074   -6.364523   -1.731223
H     -2.671597   -4.374178    0.009040
H     -1.497864   -0.481560    2.202791
H      1.894908    1.620121   -0.706574
H      2.950647    0.679553    0.398112
H      1.414589    3.538108    2.842751
H     -0.249917    1.553117    2.743415
H      3.222058    5.149418    2.486949
H      6.266671    5.229222   -0.354283
