27

C      0.173672   -3.644908    2.226048
C      0.663599   -2.804215    1.060628
O      0.641933   -1.436800    1.465115
C      1.045735   -0.509261    0.544791
C      0.990215    0.813882    0.987384
C      1.374191    1.864493    0.150453
C      1.825840    1.605272   -1.150355
C      2.243022    2.734285   -2.061626
C      1.027099    3.145313   -2.801372
N      0.162143    4.101699   -2.333149
N     -0.782655    4.234590   -3.253237
N     -0.443278    3.369877   -4.217162
N      0.689315    2.676597   -4.015565
C      1.874765    0.274638   -1.591807
C      1.488814   -0.775072   -0.750196
H     -0.840171   -3.349048    2.515490
H      0.811777   -3.496569    3.103548
H      0.171161   -4.707283    1.966590
H     -0.002357   -2.958586    0.203765
H      1.684816   -3.109154    0.804463
H      0.639954    1.029529    1.993951
H      1.310603    2.885659    0.520903
H      2.647011    3.570315   -1.479599
H      3.035843    2.407151   -2.743987
H     -1.008765    3.254470   -5.053236
H      2.208453    0.046689   -2.602749
H      1.544270   -1.785546   -1.140247
