39

C      0.491210   -0.338551   -2.149751
C     -0.728596   -1.255672   -2.104811
C     -1.400814   -1.168019   -0.939091
C     -0.693721   -0.205835   -0.136999
C      0.437084    0.325489   -0.792200
C      1.329227    1.301788   -0.237671
C      2.433180    1.773696   -0.967354
C      3.259398    2.724593   -0.364062
O      4.364594    3.277725   -0.939453
C      4.887334    4.149300   -0.038661
C      4.133644    4.166357    1.111898
C      3.072703    3.243548    0.910773
C      1.980474    2.795474    1.668953
C      1.118085    1.829271    1.089867
C     -0.030485    1.273265    1.723958
C     -0.527556    1.541418    2.976717
N     -1.654743    0.761257    3.147969
C     -1.887283   -0.002906    2.023270
C     -0.893258    0.299281    1.130354
C     -1.039022   -2.098122   -3.265289
C     -2.133146   -2.959680   -3.299883
C     -2.358707   -3.727006   -4.441970
C     -1.490254   -3.616953   -5.518811
C     -0.427464   -2.739520   -5.407117
N     -0.186223   -1.984758   -4.312485
H      1.416143   -0.914567   -2.256991
H      0.396209    0.408298   -2.944727
H     -2.288081   -1.687526   -0.622528
H      2.657528    1.425821   -1.969071
H      5.778754    4.670464   -0.358491
H      4.323681    4.768695    1.988340
H      1.805257    3.179550    2.667380
H     -0.200314    2.204010    3.765601
H     -2.228541    0.752059    3.981162
H     -2.730830   -0.677460    1.976941
H     -2.812105   -3.046547   -2.459615
H     -3.206771   -4.404191   -4.486887
H     -1.636962   -4.199002   -6.421334
H      0.282670   -2.614086   -6.219412
