29

C      2.157542   -2.272117   -3.440752
C      2.120268   -3.611355   -3.068786
C      1.747768   -3.959530   -1.770455
C      1.403086   -2.972230   -0.834460
C      1.417761   -1.618739   -1.211240
C      1.815908   -1.283545   -2.515942
N      1.126894   -0.582845   -0.304521
C      0.667758   -0.730264    1.017178
C      0.377629    0.425688    1.765248
C     -0.046902    0.349576    3.100439
C     -0.343812    1.561571    3.840280
C      0.174172    2.872200    3.732123
N     -0.386032    3.715934    4.602425
O     -1.301740    2.952895    5.308262
C     -1.271772    1.676410    4.848945
C     -0.162110   -0.909612    3.696555
C      0.146339   -2.064553    2.972879
C      0.568291   -1.984578    1.639017
S      0.951728   -3.514096    0.805015
H      2.457627   -1.994638   -4.448013
H      2.387048   -4.385320   -3.783826
H      1.731793   -5.010640   -1.490575
H      1.865453   -0.242131   -2.823315
H      0.956799    0.320045   -0.728079
H      0.476495    1.396683    1.285646
H      0.936060    3.250051    3.065179
H     -1.962153    0.999458    5.329963
H     -0.470133   -1.016178    4.734084
H      0.061480   -3.032105    3.463833
