41

C      0.657173    1.524164   -1.079437
C     -0.413079    0.589768   -1.390100
N     -0.164502   -0.593593   -1.967611
N     -1.400000   -1.138980   -2.088190
C     -1.602776   -2.421717   -2.662357
C     -2.898250   -2.948538   -2.769402
C     -3.092768   -4.210704   -3.334374
C     -2.001057   -4.948283   -3.792345
C     -0.711087   -4.428138   -3.687734
C     -0.507811   -3.166851   -3.124016
N     -2.433495   -0.382779   -1.634584
C     -1.809538    0.705002   -1.156604
C     -2.581147    1.801390   -0.506770
C     -2.392386    1.634468    0.982943
C     -3.099825    0.646214    1.686281
C     -2.923187    0.488188    3.061534
C     -2.039481    1.315734    3.750829
C     -1.332104    2.301852    3.066271
C     -1.507875    2.462703    1.690778
C      1.727199    1.117520   -0.272662
C      2.748917    2.013700    0.046717
C      2.711277    3.317924   -0.444681
C      1.656494    3.726729   -1.260003
C      0.632366    2.832367   -1.579518
H     -3.762416   -2.388567   -2.417625
H     -4.097144   -4.618491   -3.416962
H     -2.155778   -5.930611   -4.231693
H      0.138358   -5.004739   -4.045380
H      0.506108   -2.777835   -3.051203
H     -2.235540    2.784997   -0.841141
H     -3.647872    1.744055   -0.754887
H     -3.787055   -0.013364    1.158802
H     -3.472812   -0.284056    3.593223
H     -1.900215    1.190303    4.821235
H     -0.640048    2.945456    3.603072
H     -0.942609    3.237054    1.176701
H      1.764546    0.100598    0.112963
H      3.574669    1.691304    0.675739
H      3.510123    4.013269   -0.199127
H      1.636273    4.739824   -1.653715
H     -0.172072    3.161065   -2.232805
