44

Si     2.334179    3.366012   -0.973408
C      3.241862    1.863312   -1.732968
C      2.634179    0.701755   -1.407343
C      1.462496    0.837619   -0.589703
C      1.096240    2.161773   -0.220890
C     -0.007275    2.259463    0.572672
S     -0.632680    0.677357    0.863804
C      0.604047   -0.100281   -0.066485
C      0.625089   -1.524823   -0.228412
S      0.765738   -2.605135    1.105441
C      0.764848   -4.010731    0.104467
C      0.876039   -5.335196    0.641350
C      0.083979   -5.904684    1.620729
C      0.480304   -7.236896    1.939639
C      1.575444   -7.635101    1.208034
S      2.110650   -6.413675    0.137563
C      0.630196   -3.658676   -1.213475
S      0.514340   -4.637026   -2.734306
C      0.376861   -3.089198   -3.550930
C      0.410031   -1.953437   -2.735765
C      0.561118   -2.270612   -1.359161
C     -0.672818    3.418411    1.122243
C     -1.382644    4.377373    0.358065
C     -2.019118    5.542600    0.920607
C     -2.007610    5.873049    2.298000
C     -1.298597    4.920111    3.018148
C     -1.067102    4.907272    4.367567
O     -0.316316    3.808823    4.690077
C     -0.075711    3.116763    3.532290
C     -0.666463    3.761869    2.475750
H      3.197735    4.055908    0.015591
H      1.760814    4.225518   -2.038737
H      4.130659    1.996776   -2.328344
H      3.003678   -0.265511   -1.729902
H     -0.748315   -5.391792    2.088152
H     -0.008531   -7.865655    2.674056
H      2.088867   -8.586106    1.246735
H      0.269313   -3.109835   -4.626960
H      0.321022   -0.950040   -3.134749
H     -1.468413    4.227240   -0.718992
H     -2.545671    6.210300    0.236522
H     -2.488571    6.750206    2.707181
H     -1.331187    5.549376    5.195935
H      0.514341    2.217748    3.644150
