36

N     -3.318460    5.112311    3.767344
C     -2.904964    4.134365    2.856409
C     -2.992469    2.781900    3.186094
C     -2.473791    1.801284    2.331850
C     -1.813586    2.151331    1.144621
C     -1.265665    1.121365    0.247473
C     -2.070097    0.078352   -0.233938
C     -1.549948   -0.901767   -1.088446
C     -0.206114   -0.874350   -1.489038
C      0.341263   -1.905359   -2.385903
C     -0.268995   -2.185499   -3.621816
C      0.246092   -3.163670   -4.479160
C      1.388364   -3.877814   -4.101546
N      1.934115   -4.906073   -4.995891
O      2.955980   -5.504914   -4.630754
O      1.341102   -5.115410   -6.063925
C      2.013920   -3.618549   -2.877294
C      1.488653   -2.636980   -2.030062
C      0.598968    0.167750   -1.006412
C      0.077756    1.149068   -0.153946
C     -1.676998    3.516553    0.852581
C     -2.198380    4.494031    1.708802
H     -4.067377    4.809704    4.382065
H     -3.509509    6.014051    3.342233
H     -3.464996    2.474224    4.114978
H     -2.568029    0.755587    2.617287
H     -3.120232    0.024832    0.047143
H     -2.208510   -1.697324   -1.431528
H     -1.152027   -1.627917   -3.931787
H     -0.251199   -3.349970   -5.428831
H      2.901025   -4.166450   -2.566261
H      1.977591   -2.452019   -1.074283
H      1.645440    0.232826   -1.297986
H      0.738630    1.935877    0.205212
H     -1.158980    3.834330   -0.049835
H     -2.047672    5.542101    1.464658
