31

O     -2.501383   -2.922842    0.910045
C     -1.579016   -2.305431    0.377703
C     -0.129436   -2.604824    0.798926
O      0.866798   -2.070221   -0.071590
C      1.644082   -1.128443    0.564429
C      2.707425   -1.563526    1.362615
C      3.519841   -0.626506    1.990602
C      3.283042    0.731824    1.793679
C      2.239430    1.163467    0.951134
C      2.002771    2.523577    0.708846
C      0.958253    2.912104   -0.124083
C      0.168677    1.925254   -0.677215
N      0.366887    0.604644   -0.468391
C      1.395355    0.225341    0.323339
N     -1.685038   -1.319627   -0.573030
C     -2.825752   -0.861059   -1.182226
N     -2.797778    0.160446   -2.009947
C     -4.062949    0.384820   -2.515628
C     -5.045514   -0.461223   -2.050805
S     -4.356926   -1.583456   -0.956629
H     -0.012748   -3.698978    0.768965
H     -0.012622   -2.284231    1.846251
H      2.901910   -2.623574    1.487687
H      4.335693   -0.950792    2.633096
H      3.926987    1.456186    2.288682
H      2.636509    3.283958    1.157337
H      0.779648    3.961012   -0.344021
H     -0.666910    2.168573   -1.328408
H     -0.846535   -0.782874   -0.808208
H     -4.208376    1.182187   -3.231954
H     -6.100782   -0.480065   -2.290819
