26

N     -0.345903    1.103200   -2.326875
C      1.052997    1.096540   -2.147963
C      1.860123    1.126056   -3.296211
C      3.245719    0.990705   -3.207669
C      3.843180    0.788038   -1.969659
C      3.052159    0.710331   -0.821999
C      1.651463    0.846466   -0.890598
C      0.843607    0.769872    0.331630
N     -0.426897    1.100831    0.515764
C     -0.648408    0.826631    1.841297
C     -1.797248    0.961225    2.631223
C     -1.716865    0.593354    3.983392
C     -0.523416    0.105245    4.531639
C      0.632825   -0.034322    3.753987
C      0.510498    0.340386    2.421663
O      1.476088    0.303650    1.460612
H     -0.847302    1.305223   -1.456424
H     -0.663553    1.677142   -3.099656
H      1.405086    1.246770   -4.276314
H      3.853288    1.028566   -4.108013
H      4.921948    0.677217   -1.895535
H      3.542416    0.539697    0.134501
H     -2.719422    1.338605    2.203998
H     -2.598128    0.689130    4.614888
H     -0.493630   -0.172214    5.583989
H      1.563685   -0.410196    4.158892
