45

C     -4.989935   -0.617306    2.091993
N     -3.742343    0.135989    2.156085
C     -3.431192    0.885258    3.306428
C     -4.206735    0.909230    4.474997
C     -3.836408    1.689958    5.578217
C     -2.678325    2.460579    5.538082
C     -1.883394    2.444411    4.397109
C     -2.254423    1.659736    3.300465
O     -1.394638    1.697315    2.221963
C     -1.643437    0.828068    1.179049
C     -0.665055    0.792681    0.177376
C     -0.796030   -0.061826   -0.923456
C      0.227738   -0.106217   -1.980579
C      0.635955    1.059372   -2.633257
C      1.607808    1.027681   -3.641670
C      2.209453   -0.195204   -4.030216
C      1.797720   -1.353337   -3.373506
C      0.817969   -1.324294   -2.357770
S      2.623966   -2.737026   -3.960786
C      3.536909   -1.829139   -5.093769
C      4.496887   -2.328358   -5.997286
C      5.149529   -1.440347   -6.854152
C      4.857473   -0.085449   -6.816925
C      3.904483    0.404240   -5.918683
C      3.221851   -0.471200   -5.033228
C     -1.934847   -0.877357   -0.980326
C     -2.916289   -0.834781    0.022451
C     -2.798647    0.027775    1.118652
H     -5.809427   -0.110766    2.612952
H     -4.858956   -1.614186    2.526179
H     -5.359481   -0.725667    1.066748
H     -5.109571    0.315232    4.567805
H     -4.456546    1.690532    6.471323
H     -2.392681    3.065701    6.394072
H     -0.972566    3.034790    4.357217
H      0.210309    1.430274    0.277194
H      0.190014    2.017585   -2.370902
H      1.897354    1.955336   -4.128928
H      0.533841   -2.249300   -1.860995
H      4.727426   -3.389688   -6.027679
H      5.891728   -1.816560   -7.554272
H      5.369920    0.600457   -7.487049
H      3.687427    1.469314   -5.902034
H     -2.077723   -1.555629   -1.819997
H     -3.762481   -1.505128   -0.083808
