41

C     -5.108008    4.351107    2.632389
O     -4.966945    3.891893    1.294307
C     -4.227351    2.757545    1.107083
C     -3.576657    2.027397    2.097368
C     -2.849189    0.877901    1.758775
C     -2.770967    0.419161    0.434047
N     -1.977781   -0.710996    0.160004
C     -1.949237   -1.581121   -0.957061
N     -2.815056   -1.405391   -1.985591
C     -2.743158   -2.232273   -3.052188
C     -1.823082   -3.255565   -3.172178
C     -0.918408   -3.438859   -2.135709
C     -0.968757   -2.587152   -1.022623
C     -0.026151   -2.788706    0.106499
O     -0.470588   -2.708128    1.246805
N      1.283895   -3.028332   -0.267305
C      2.378651   -3.301734    0.579674
C      3.638851   -3.420515   -0.021876
C      4.773334   -3.696752    0.745975
C      4.658038   -3.859726    2.123417
C      3.409404   -3.747317    2.729816
C      2.273808   -3.470559    1.961241
C     -3.402724    1.181854   -0.549828
C     -4.131226    2.330738   -0.216635
H     -4.138377    4.629745    3.058118
H     -5.733082    5.249102    2.613452
H     -5.614576    3.606194    3.255039
H     -3.605600    2.321567    3.140574
H     -2.339369    0.335322    2.552110
H     -1.738356   -1.237103    1.004566
H     -3.476677   -2.041503   -3.831042
H     -1.820295   -3.898567   -4.045406
H     -0.205534   -4.257050   -2.185740
H      1.507874   -2.928931   -1.249409
H      3.758804   -3.296190   -1.094686
H      5.745922   -3.783107    0.268562
H      5.537895   -4.073741    2.724452
H      3.312858   -3.874853    3.805188
H      1.320757   -3.397504    2.475038
H     -3.336601    0.904145   -1.596945
H     -4.621306    2.897805   -1.003823
