45

C     -1.430939    0.398803   -1.041720
C     -1.433768   -1.007321   -1.618158
C     -0.495188   -1.759582   -1.012502
C      0.205605   -0.961433   -0.005470
C     -0.339955    0.326479   -0.010458
C      0.116590    1.328596    0.842274
C     -0.456980    2.617720    0.810510
C      0.010951    3.603046    1.667437
Si    -0.543365    5.384396    1.855183
C      0.755564    5.581824    3.198627
C      1.456273    4.454761    3.420136
C      1.052109    3.325092    2.566335
C      1.621827    2.055030    2.602158
C      1.177168    1.012642    1.744575
C      1.743966   -0.323146    1.750708
C      2.798471   -0.722899    2.612937
C      3.333239   -2.014594    2.605910
C      2.831922   -2.962573    1.731733
C      1.797618   -2.615651    0.867593
C      1.244521   -1.314843    0.860492
C     -2.272238   -1.532104   -2.647561
S     -3.482313   -0.495966   -3.401859
C     -4.065552   -1.723946   -4.469822
C     -3.355548   -2.842474   -4.235405
N     -3.504700   -4.041414   -4.869348
C     -2.531233   -4.805872   -4.234328
C     -1.841385   -4.056244   -3.257769
C     -2.390820   -2.741649   -3.256086
H     -1.186023    1.136078   -1.813296
H     -2.392766    0.629694   -0.572184
H     -0.262230   -2.791737   -1.207114
H     -1.264279    2.849274    0.120068
H     -0.244270    6.213288    0.660774
H     -1.923261    5.508827    2.387665
H      0.884091    6.524323    3.708051
H      2.248235    4.357736    4.150547
H      2.423625    1.887748    3.313476
H      3.234422   -0.024778    3.321673
H      4.140842   -2.271424    3.286397
H      3.240942   -3.968949    1.718843
H      1.424151   -3.381046    0.192225
H     -4.864658   -1.551076   -5.176468
H     -4.159042   -4.281821   -5.603746
H     -2.400156   -5.839456   -4.528302
H     -1.043483   -4.442586   -2.639314
