34

C     -0.236544    2.682080   -4.348042
C      0.146099    1.225506   -4.338023
O      0.565306    0.710935   -5.377427
C      0.014075    0.442165   -3.094619
C      0.005354   -0.948707   -3.064535
C      0.117414   -1.945558   -4.166361
N     -0.170897   -1.349768   -1.769203
C     -0.237260   -0.264826   -0.928996
C     -0.438662   -0.365891    0.509027
O     -1.153576    0.414774    1.124403
N      0.276809   -1.402563    1.080762
C      0.251638   -1.801084    2.434003
C      1.145402   -2.798815    2.832671
C      1.156861   -3.238016    4.155730
C      0.265384   -2.665669    5.045524
N     -0.616262   -1.705736    4.701634
C     -0.604781   -1.292717    3.407075
C     -0.131603    0.875651   -1.724084
C     -0.144584    2.278690   -1.211446
H     -1.191037    2.832475   -3.838341
H     -0.360681    3.014236   -5.383802
H      0.551998    3.280635   -3.887787
H     -0.640093   -1.757054   -4.933639
H      1.107835   -1.892490   -4.629221
H     -0.026788   -2.967451   -3.800004
H     -0.284862   -2.311292   -1.475330
H      0.969267   -1.850487    0.496880
H      1.843186   -3.242968    2.128799
H      1.845884   -4.007917    4.484563
H      0.234600   -2.972097    6.087234
H     -1.340862   -0.524391    3.195474
H     -1.104418    2.756167   -1.429250
H      0.659720    2.863984   -1.665658
H      0.016274    2.322773   -0.130399
