42

C      1.892887    0.842056   -3.874124
N      0.652430    0.418460   -3.232330
C     -0.452190    0.044461   -4.040855
C     -0.338745   -0.193260   -5.423836
C     -1.442045   -0.571723   -6.190401
C     -2.679903   -0.735348   -5.586401
C     -2.817743   -0.520706   -4.214264
C     -1.725411   -0.123268   -3.419955
N     -1.831220    0.090019   -2.021084
C     -3.155444    0.197679   -1.416453
C     -0.680008    0.179371   -1.195722
C     -0.743283    0.079318    0.209336
C      0.403860    0.158763    1.013242
C      0.339814    0.058495    2.470013
N      1.327794    0.104079    3.348167
C      0.697563   -0.037286    4.557859
C      1.203402   -0.068950    5.863568
C      0.294547   -0.228897    6.921149
C     -1.080453   -0.353667    6.682115
C     -1.600445   -0.323717    5.382112
C     -0.667602   -0.163934    4.364915
O     -0.907346   -0.102762    3.024247
C      1.641061    0.326281    0.389047
C      1.734541    0.411218   -1.002802
C      0.591562    0.348120   -1.817549
H      1.713163    1.365387   -4.820058
H      2.443348    1.573546   -3.271765
H      2.542062   -0.019339   -4.064171
H      0.616405   -0.114314   -5.931975
H     -1.326661   -0.752106   -7.255752
H     -3.538343   -1.044666   -6.176484
H     -3.795214   -0.697815   -3.778348
H     -3.888006    0.646551   -2.096768
H     -3.518541   -0.788067   -1.106657
H     -3.161398    0.866193   -0.548006
H     -1.697742   -0.090576    0.697636
H      2.268002    0.027827    6.044350
H      0.666628   -0.256295    7.943580
H     -1.759443   -0.476627    7.524229
H     -2.659075   -0.418636    5.177442
H      2.550845    0.378033    0.985459
H      2.728065    0.502630   -1.429100
