43

C      2.969261    0.446205    4.786917
C      3.729596    0.635493    6.102794
C      4.540916    1.715535    6.049144
C      4.419098    2.324698    4.776637
C      4.967477    3.403714    4.160940
S      4.325676    3.534021    2.568658
C      3.306295    2.121297    2.728591
C      2.450872    1.646811    1.682387
C      2.354111    2.248161    0.476895
C      1.404691    1.511001   -0.334913
C      0.958943    1.705301   -1.613076
N      0.053511    0.878565   -2.181983
C     -0.432137   -0.182721   -1.461578
C     -0.016066   -0.443825   -0.136092
N     -0.454481   -1.468096    0.624167
C     -1.360717   -2.311353    0.080870
C     -1.877967   -2.206969   -1.201476
C     -2.848137   -3.170949   -1.681552
C     -3.436533   -3.157979   -2.964751
C     -2.953054   -2.090267   -3.700487
C     -3.319150   -1.788440   -4.986651
N     -2.614056   -0.661115   -5.346277
C     -1.810588   -0.250776   -4.304476
C     -1.998836   -1.123491   -3.259258
C     -1.384396   -1.103353   -1.975147
C      0.907178    0.433022    0.387780
C      1.533439    0.423624    1.745888
C      3.491847    1.600080    3.991677
H      1.890568    0.520081    4.950351
H      3.224652   -0.512969    4.328105
H      3.619159   -0.019754    6.953869
H      5.183405    2.066322    6.844249
H      5.691280    4.115298    4.531350
H      2.868139    3.126899    0.120342
H      1.305711    2.525618   -2.231300
H     -1.670692   -3.113307    0.747462
H     -3.155695   -3.973871   -1.008236
H     -4.158428   -3.887202   -3.302211
H     -4.004604   -2.256213   -5.679990
H     -2.674503   -0.198581   -6.243927
H     -1.183935    0.624234   -4.413392
H      2.114007   -0.490894    1.903186
H      0.776419    0.544729    2.527167
