33

C     -1.022755    1.382954   -6.131565
O     -2.014464    1.702024   -5.163156
C     -1.792449    1.265482   -3.887541
C     -0.688588    0.542656   -3.445037
C     -0.586114    0.155681   -2.099693
C     -1.579093    0.478376   -1.169761
N     -1.531052    0.123736    0.187609
C     -0.574657   -0.563790    0.873760
N      0.544683   -1.060228    0.479331
C      1.256798   -1.702828    1.467078
O      2.310706   -2.282185    1.263734
C      0.573368   -1.616206    2.797247
C      0.937935   -2.070251    4.004076
C      2.144913   -2.738006    4.341765
C      3.458292   -2.573696    3.915575
C      4.271635   -3.493991    4.619686
C      3.428276   -4.164307    5.464843
O      2.160886   -3.710848    5.321665
S     -0.939784   -0.797648    2.573852
C     -2.684382    1.208993   -1.632141
C     -2.789465    1.596472   -2.972530
H     -0.924044    0.299194   -6.253380
H     -0.061546    1.842384   -5.878379
H     -1.347138    1.797402   -7.090967
H      0.117106    0.258489   -4.114060
H      0.296571   -0.407297   -1.809001
H     -2.333856    0.408999    0.732374
H      0.245904   -1.958558    4.836093
H      3.800648   -1.864867    3.173724
H      5.337718   -3.641244    4.522904
H      3.565988   -4.947272    6.197171
H     -3.486000    1.490442   -0.953671
H     -3.657245    2.161622   -3.303993
