34

C     -1.629716    4.668330   -3.475585
N     -1.390766    3.670509   -4.296715
C     -0.887971    2.605138   -3.572966
C     -0.758516    2.799910   -2.209335
S     -1.274935    4.393107   -1.821643
C     -0.281181    1.897229   -1.176457
C      0.742298    2.224400   -0.262421
C      1.160364    1.274249    0.693910
O      2.118849    1.504430    1.646362
C      2.254879    0.350501    2.372717
C      3.132647    0.193600    3.464195
C      3.215396   -1.046647    4.120002
C      2.408222   -2.032837    3.552179
C      2.417144   -3.322176    4.035026
S      1.399016   -4.360127    3.108772
C      0.939458   -3.082237    2.044877
C      1.517902   -1.916174    2.446971
C      1.407287   -0.619474    1.851240
C      0.676017   -0.020062    0.841409
C     -0.408241   -0.358603   -0.022098
C     -1.233037   -1.442255   -0.067700
N     -2.119960   -1.192117   -1.096206
C     -1.876270    0.051902   -1.643847
C     -0.805959    0.611290   -0.977355
H     -2.027609    5.614678   -3.817736
H     -0.625493    1.693317   -4.096438
H      1.222337    3.198270   -0.285205
H      3.740710    1.031852    3.791158
H      3.878961   -1.204426    4.961766
H      2.975335   -3.730953    4.866315
H      0.313419   -3.308589    1.201481
H     -1.340795   -2.340098    0.516565
H     -2.871162   -1.809920   -1.376873
H     -2.515607    0.421558   -2.434767
