42

C      1.629309   -2.296665    0.726187
C      1.331870   -1.587249   -0.380573
C      2.412969   -1.457403   -1.385518
C      3.610423   -0.784215   -1.096053
C      4.589530   -0.639160   -2.079008
C      4.380710   -1.163216   -3.353582
C      3.195012   -1.841292   -3.651148
C      2.216905   -1.994035   -2.673139
C     -0.001056   -1.069026   -0.591623
N     -1.116318   -1.798593   -0.427002
N     -2.097911   -0.914677   -0.740193
C     -3.469033   -1.286424   -0.742152
C     -4.452390   -0.342791   -1.073899
C     -5.799129   -0.715631   -1.083053
C     -6.169110   -2.017201   -0.750873
C     -5.193073   -2.957897   -0.426831
C     -3.843280   -2.600759   -0.425567
N     -1.699638    0.345102   -1.047203
C     -0.364750    0.263896   -0.952423
C      0.457947    1.451203   -1.127270
C      0.440688    2.449727   -0.140352
C      1.212241    3.606135   -0.293014
C      2.000292    3.769741   -1.434796
C      2.015427    2.782595   -2.424226
C      1.238073    1.628428   -2.277036
H      0.879947   -2.478329    1.493618
H      2.608820   -2.735291    0.887511
H      3.776515   -0.345728   -0.113077
H      5.511998   -0.106967   -1.853313
H      5.140860   -1.042081   -4.115280
H      3.032861   -2.240435   -4.650978
H      1.295981   -2.526914   -2.916802
H     -4.183484    0.681539   -1.329076
H     -6.558526    0.011478   -1.347778
H     -7.218850   -2.302689   -0.758764
H     -5.480806   -3.973674   -0.193589
H     -3.093429   -3.352759   -0.190787
H     -0.181289    2.334454    0.747321
H      1.185543    4.380018    0.472866
H      2.598239    4.672018   -1.557237
H      2.623566    2.913548   -3.318219
H      1.248502    0.877297   -3.064522
