49

C      0.052269    2.505232    5.189951
C      0.265606    1.249723    5.978234
C      0.196986    0.197288    5.152365
C      0.172448   -1.195623    5.503245
C     -0.126654   -2.091685    4.547266
C     -0.344013   -1.676525    3.138907
C     -0.739796   -2.608805    2.200803
N     -0.923465   -2.343898    0.887894
C     -0.613547   -1.134674    0.385292
C     -0.768537   -0.914881   -1.055078
C     -1.327307   -1.812206   -2.010732
C     -1.870222   -3.053337   -1.777309
O     -2.342893   -3.593229   -2.937583
C     -2.108489   -2.692075   -3.932215
C     -1.465091   -1.588929   -3.427028
C     -1.065419   -0.447722   -4.129449
C     -0.516533    0.494581   -3.227845
C     -0.374848    0.275138   -1.794064
C      0.218156    1.174970   -0.896274
C      0.827980    2.363779   -1.209537
O      1.401113    2.893052   -0.093177
C      1.141845    2.037799    0.937217
C      0.344507    1.000554    0.516357
C     -0.123392   -0.115009    1.272650
C     -0.127889   -0.356105    2.685735
C      0.016093    0.645252    3.771170
C     -0.153871    1.978693    3.797363
C     -1.186836   -0.222018   -5.564372
C     -0.799718   -1.162459   -6.518270
C     -0.933396   -0.855210   -7.870864
C     -1.440349    0.383140   -8.239955
C     -1.785403    1.269784   -7.236002
N     -1.662230    0.999184   -5.917700
H     -0.835549    3.040133    5.540059
H      0.924437    3.163287    5.240414
H      0.363788    1.213610    7.052259
H      0.335762   -1.495160    6.532240
H     -0.191394   -3.148237    4.786956
H     -0.945856   -3.639251    2.479000
H     -2.011675   -3.669033   -0.900364
H     -2.464277   -2.989072   -4.908576
H     -0.175695    1.442842   -3.646627
H      0.985214    2.927177   -2.118633
H      1.616601    2.309504    1.868460
H     -0.439047    2.614609    2.974552
H     -0.379967   -2.118893   -6.223199
H     -0.637722   -1.575998   -8.627939
H     -1.557762    0.653780   -9.283128
H     -2.181610    2.253805   -7.470014
