39

C      3.301044   -0.149407    1.898571
C      3.574878   -1.291224    1.251805
C      3.353800   -1.610833   -0.205473
C      2.670245   -0.548107   -1.028940
C      3.381973    0.390642   -1.769706
C      4.882883    0.422093   -1.800487
N      2.773244    1.332955   -2.515908
C      1.435578    1.344755   -2.520088
S      0.662830    2.593300   -3.520414
C     -1.055179    2.419666   -2.981348
N      0.667120    0.495399   -1.831785
C      1.278204   -0.436291   -1.079978
N      0.490745   -1.326913   -0.304700
C     -0.900553   -1.556240   -0.376771
C     -1.622209   -1.452780   -1.572530
C     -2.990904   -1.743860   -1.622067
C     -3.658100   -2.170319   -0.471015
C     -5.105145   -2.492507   -0.469638
O     -5.747452   -2.880286    0.488859
O     -5.682638   -2.312437   -1.670543
C     -2.943718   -2.313702    0.721946
C     -1.575930   -2.020410    0.762327
H      3.519344   -0.051404    2.958898
H      2.872341    0.719729    1.408616
H      4.017689   -2.103076    1.829280
H      4.322620   -1.867948   -0.649566
H      2.776941   -2.542682   -0.270326
H      5.273127   -0.478177   -2.284712
H      5.289239    0.500979   -0.787683
H      5.241530    1.287682   -2.367952
H     -1.449965    1.436052   -3.249841
H     -1.143812    2.572210   -1.902001
H     -1.662201    3.177738   -3.484053
H      0.818635   -1.302924    0.656817
H     -1.123672   -1.151635   -2.490574
H     -3.518277   -1.641543   -2.567136
H     -6.619237   -2.558730   -1.520215
H     -3.445453   -2.658773    1.623889
H     -1.044573   -2.154008    1.701518
