42

Si     2.957792   -3.107958    3.960486
C      4.519034   -2.548455    4.894746
C      4.904466   -1.315690    4.501602
C      4.077191   -0.718725    3.497348
C      4.179730    0.499345    2.885841
S      2.908115    0.711735    1.744274
C      2.205951   -0.847466    2.068473
C      1.023777   -1.263102    1.356020
C      0.296351   -2.437416    1.433548
C     -0.779214   -2.334229    0.514788
C     -0.678785   -1.100039   -0.098441
O      0.416724   -0.462575    0.420250
C     -1.515109   -0.506462   -1.101741
S     -1.187802    1.080289   -1.732947
C     -2.543819    1.082355   -2.819611
C     -2.865875    2.178331   -3.694582
S     -4.236903    2.165603   -4.785078
C     -3.921926    3.742384   -5.420886
C     -2.822238    4.217342   -4.807916
N     -2.237134    5.430933   -5.022957
C     -1.167351    5.376077   -4.135590
C     -1.143839    4.154784   -3.428972
C     -2.250879    3.376183   -3.876776
C     -3.175475   -0.103881   -2.657329
O     -4.293816   -0.544437   -3.304471
C     -4.441635   -1.785927   -2.723853
C     -3.465590   -2.090936   -1.770879
C     -2.622722   -0.962943   -1.731251
C      2.959112   -1.468799    3.027095
H      1.803596   -3.272228    4.878528
H      3.230904   -4.285762    3.100145
H      4.988093   -3.180472    5.631424
H      5.771561   -0.807358    4.907929
H      4.915418    1.277319    3.033318
H      0.498651   -3.283878    2.070550
H     -1.535496   -3.082244    0.329608
H     -4.543086    4.201300   -6.176688
H     -2.526724    6.158640   -5.664691
H     -0.493056    6.220539   -4.071329
H     -0.403614    3.888283   -2.686265
H     -5.293668   -2.342243   -3.092657
H     -3.406487   -3.009331   -1.206535
