44

Si     2.538987   -3.116377   -5.600162
C      1.061317   -2.471004   -6.528460
C      0.186857   -1.873832   -5.697502
C     -1.110059   -1.403635   -6.121155
C     -1.974429   -0.946364   -5.203576
C     -1.618072   -0.838608   -3.776431
N     -2.610084   -0.340067   -3.013914
C     -2.336404   -0.146561   -1.705812
C     -1.107685   -0.379014   -1.073594
C     -0.058278   -0.804399   -1.930113
C      1.220708   -0.780259   -1.359720
N      1.519406   -0.442377   -0.086291
C      0.487534   -0.137564    0.723516
C      0.908459    0.312276    2.061945
C      0.038533    0.687269    3.021519
C      0.598776    1.149645    4.251871
C      1.281075    0.457800    5.240061
N      1.708303    1.198833    6.325872
C      1.354520    2.452154    6.153398
S      0.500733    2.810399    4.712147
C     -1.389796    0.544632    2.734375
C     -2.367240    0.708166    3.650877
Si    -4.037871    0.259856    2.974812
C     -3.183768   -0.182559    1.364684
C     -1.860757    0.090262    1.394483
C     -0.857718   -0.150127    0.313708
C     -0.332711   -1.153076   -3.287383
C      0.593937   -1.803678   -4.268545
C      1.744729   -2.468013   -4.023052
H      3.787811   -2.389810   -5.930687
H      2.623573   -4.595998   -5.612635
H      0.941377   -2.646194   -7.586084
H     -1.388985   -1.464410   -7.167570
H     -2.966849   -0.610749   -5.483863
H     -3.173873    0.298196   -1.180199
H      2.112314   -0.964545   -1.947571
H      1.983702    0.370189    2.209220
H      1.492535   -0.604893    5.215518
H      1.586261    3.221672    6.878085
H     -2.253501    0.992124    4.685661
H     -4.931819    1.432033    2.824012
H     -4.625468   -0.928649    3.636492
H     -3.775509   -0.629757    0.585280
H      2.228594   -2.687105   -3.087970
