41

C      3.785911   -3.742674   -2.404832
C      3.774758   -4.043455   -3.784117
C      2.768525   -3.241111   -4.375104
C      2.198546   -2.980228   -5.568067
S      0.969437   -1.778461   -5.307071
C      1.270186   -1.672565   -3.598049
C      0.561879   -0.809824   -2.693275
C     -0.461789    0.076179   -2.985354
C     -0.795415    0.666406   -1.744050
S     -1.886884    1.836011   -1.058464
C     -1.241593    1.601538    0.562174
C     -0.239613    0.647481    0.463221
C      0.484438    0.230374    1.598913
C      1.490456   -0.666088    1.771928
O      1.813414   -0.665837    3.104356
C      0.990090    0.240312    3.727437
C      0.137389    0.828064    2.817923
C     -0.853300    1.804779    3.063882
C     -1.123116    2.351208    4.373994
C     -2.107353    3.321738    4.619158
C     -2.785431    3.690660    3.459369
C     -3.785727    4.631031    3.504564
S     -4.453838    4.902399    1.953440
C     -3.398010    3.756040    1.223984
C     -2.541739    3.163023    2.124874
C     -1.558817    2.183961    1.836459
C      0.006796    0.133820   -0.798060
O      0.855332   -0.778567   -1.344969
C      2.269712   -2.535407   -3.302865
N      2.831050   -2.781905   -2.081739
H      4.410081   -4.145417   -1.617293
H      4.424201   -4.757623   -4.272836
H      2.397378   -3.386429   -6.549102
H     -0.906739    0.272305   -3.950096
H      2.059536   -1.336513    1.145780
H      1.148876    0.332915    4.792572
H     -0.542317    2.003664    5.227560
H     -2.297700    3.721568    5.606995
H     -4.165636    5.176701    4.357559
H     -3.503690    3.614730    0.161828
H      2.582133   -2.351165   -1.198300
