24

C     -4.504647   -1.298900   -1.409139
C     -4.097417   -2.114229   -2.441829
N     -2.818174   -2.161765   -2.844084
N     -1.882249   -1.377874   -2.212848
C     -2.222346   -0.555950   -1.190998
C     -1.119956    0.232015   -0.600507
C     -1.290934    1.124298    0.454731
N     -0.306560    1.864226    1.023066
C      0.936581    1.724706    0.526750
C      1.983102    2.455486    1.067794
C      3.277674    2.327677    0.570747
C      3.483895    1.451588   -0.475769
N      2.499709    0.718698   -1.036222
C      1.252773    0.859410   -0.537523
C      0.200949    0.129169   -1.076530
C     -3.550198   -0.506496   -0.773333
H     -5.543879   -1.276260   -1.100426
H     -4.785237   -2.755651   -2.979588
H     -2.259510    1.297408    0.914205
H      1.783554    3.135804    1.891211
H      4.098019    2.897618    0.991586
H      4.471474    1.309353   -0.905584
H      0.432925   -0.544384   -1.901133
H     -3.874996    0.133392    0.038574
