43

C      3.453528   -1.858457   -0.294739
C      2.404727   -1.524764   -1.343011
N      1.833339   -0.185323   -1.171102
C      2.543422    0.936825   -1.791065
C      3.455592    1.676098   -0.823128
C      0.714183    0.111025   -0.393539
O      0.322444    1.272662   -0.242396
C     -0.042173   -1.025628    0.280351
S     -1.271893   -1.742423   -0.842704
C     -2.370783   -0.409693   -1.011936
N     -3.109121   -0.197674   -2.081535
N     -3.837336    0.949765   -1.838840
C     -3.497719    1.352346   -0.632379
C     -3.977337    2.547582    0.122897
C     -4.957101    2.163772    1.240743
C     -4.271470    1.647749    2.504786
C     -3.209066    2.620448    3.002811
C     -2.177977    2.928517    1.923772
C     -2.829148    3.430866    0.634508
O     -2.592728    0.521304   -0.034341
H      3.774177   -2.899654   -0.400321
H      3.066626   -1.719138    0.719340
H      4.339211   -1.227205   -0.406328
H      2.836189   -1.597851   -2.347542
H      1.610127   -2.273012   -1.300244
H      1.800650    1.640923   -2.184858
H      3.117887    0.572416   -2.649535
H      2.900529    2.060278    0.038292
H      3.929233    2.524689   -1.326729
H      4.248440    1.026502   -0.443866
H     -0.530118   -0.637524    1.181467
H      0.642615   -1.803667    0.624623
H     -4.540476    3.148193   -0.605611
H     -5.677914    1.416762    0.885855
H     -5.540354    3.054577    1.509642
H     -5.022374    1.495612    3.288727
H     -3.816571    0.669059    2.313865
H     -3.689368    3.552434    3.325443
H     -2.707547    2.200127    3.881830
H     -1.477584    3.686066    2.294471
H     -1.582422    2.031766    1.722854
H     -3.232506    4.433185    0.831961
H     -2.060401    3.553895   -0.138408
