19

N      0.193464    1.129511   -2.374158
C      0.308127   -0.031498   -1.581499
C     -0.682622   -1.016878   -1.724351
C     -0.718779   -2.133469   -0.888470
C      0.216042   -2.264826    0.130740
C      1.179601   -1.272786    0.319153
C      1.233508   -0.139658   -0.517647
C      2.266733    0.872330   -0.278338
N      2.600369    1.842021   -1.211665
C      3.548869    2.503244   -0.599182
O      3.847857    2.024671    0.631506
N      3.004793    0.937768    0.846196
H      1.064559    1.667510   -2.387414
H     -0.170917    0.959579   -3.304959
H     -1.445490   -0.911985   -2.492136
H     -1.487352   -2.889595   -1.025491
H      0.189384   -3.129185    0.789288
H      1.892388   -1.390360    1.133776
H      4.111502    3.358675   -0.940447
