50

C     -0.049966   -2.719862   -3.117360
C      0.155436   -2.392457   -4.597951
C      0.561217   -1.114434   -4.764198
C      0.663247   -0.487306   -3.496004
C      0.307280   -1.413537   -2.483760
C      0.376398   -0.888918   -1.211389
S      0.888691    0.778981   -1.332689
C      1.019298    0.749649   -3.050022
C      1.410752    1.934900   -3.778733
C      0.565822    2.646629   -4.666486
C      0.972554    3.819274   -5.400055
C      2.263317    4.396231   -5.331340
C      3.071009    3.670814   -4.465558
C      4.382045    3.916888   -4.159364
O      4.830240    2.967325   -3.281127
C      3.789718    2.113280   -3.027899
C      2.681089    2.511940   -3.730018
C      0.113054   -1.443268    0.076713
C      0.186207   -0.776794    1.441788
C     -0.194667   -1.892134    2.380287
C     -0.461363   -2.994103    1.662905
C     -0.265290   -2.722020    0.260995
C     -0.283100   -1.707469    3.818305
C     -0.741967   -0.519349    4.447254
C     -0.829883   -0.330028    5.872493
C     -0.457082   -1.301380    6.826212
C      0.008744   -2.446572    6.196027
C      0.479637   -3.565798    6.831728
N      0.873409   -4.445250    5.847620
C      0.659930   -3.895206    4.600054
C      0.097527   -2.653287    4.782027
H      0.624707   -3.521803   -2.804863
H     -1.090995   -2.994234   -2.925220
H     -0.003654   -3.104365   -5.393959
H      0.781442   -0.636056   -5.708276
H     -0.458705    2.296638   -4.801981
H      0.233137    4.290148   -6.049656
H      2.556710    5.274338   -5.888400
H      5.109395    4.660828   -4.451118
H      4.010755    1.303482   -2.346824
H      1.200958   -0.420488    1.650312
H     -0.522011    0.056728    1.498034
H     -0.798122   -3.946530    2.043041
H     -0.418790   -3.479211   -0.490602
H     -1.071173    0.311611    3.822773
H     -1.208806    0.626563    6.233815
H     -0.521218   -1.147786    7.893381
H      0.586325   -3.820333    7.877225
H      1.278615   -5.357014    6.014479
H      0.942817   -4.444955    3.713824
