36

C     -0.648103   -3.166037   -4.464299
C     -0.576444   -2.391476   -5.814186
C     -0.477465   -1.045694   -5.647683
C     -0.477419   -0.856661   -4.260891
N     -0.404122    0.231831   -3.457254
C     -0.454336   -0.266496   -2.166482
C     -0.443219    0.060281   -0.816979
C     -0.366941    1.189002    0.112768
C     -0.433614    0.398163    1.443240
C     -0.539902   -0.942591    1.249168
C     -0.538588   -1.135452   -0.149205
O     -0.611761   -2.203884   -0.981772
C     -0.556713   -1.640934   -2.228079
C     -0.571960   -2.024649   -3.557285
C     -0.439087    1.059829    2.732096
C     -1.543087    1.035966    3.617870
C     -1.566987    1.705249    4.883932
C     -0.490463    2.459610    5.397137
C      0.601923    2.465547    4.529382
C      1.771761    3.119161    4.827706
S      2.934655    2.912723    3.580130
C      1.867984    1.940615    2.643344
C      0.640518    1.796840    3.248407
H      0.203080   -3.844624   -4.366772
H     -1.592555   -3.710308   -4.385038
H     -0.604223   -2.894211   -6.770026
H     -0.413003   -0.289472   -6.414847
H     -0.328539    1.211693   -3.697900
H     -1.222839    1.863193    0.015013
H      0.569813    1.740900    0.007062
H     -0.617987   -1.724029    1.988382
H     -2.438483    0.486678    3.322567
H     -2.473800    1.625488    5.484878
H     -0.528920    2.955570    6.358001
H      2.020825    3.699159    5.705658
H      2.220604    1.530923    1.707574
