38

C      6.558650   -0.177733   -0.010759
C      5.071603   -0.367465    0.072618
C      4.538575   -1.518071    0.694724
C      3.153276   -1.714082    0.817823
C      2.288180   -0.748536    0.324802
C      2.849333    0.391845   -0.276975
C      4.207411    0.617186   -0.414520
C      0.823909   -0.731139    0.340543
C     -0.052866   -1.678012    0.843798
C     -1.438384   -1.448277    0.750147
C     -1.979547   -0.275843    0.160037
C     -3.437661   -0.047300    0.068975
N     -3.849635    0.658184   -1.015599
C     -5.172341    0.906552   -1.167559
C     -5.589196    1.684235   -2.379470
C     -6.124212    0.472567   -0.254159
C     -5.699752   -0.240970    0.859138
C     -4.342488   -0.504006    1.025720
C     -1.080904    0.672754   -0.356032
C      0.275668    0.419440   -0.248643
S      1.566631    1.471848   -0.814246
O      1.593750    2.658857    0.012703
O      1.559214    1.487592   -2.260687
H      6.924418    0.310901    0.897474
H      6.826636    0.437628   -0.876046
H      7.067826   -1.140236   -0.126518
H      5.212444   -2.277151    1.090482
H      2.782542   -2.614507    1.298237
H      4.575706    1.524160   -0.883918
H      0.306392   -2.594808    1.301929
H     -2.104965   -2.220476    1.132025
H     -6.272239    1.089548   -2.993904
H     -4.720546    1.946641   -2.991984
H     -6.087986    2.611402   -2.080641
H     -7.177288    0.688581   -0.401459
H     -6.419324   -0.586047    1.596058
H     -4.008859   -1.043318    1.905398
H     -1.435687    1.585640   -0.828236
