44

C      1.404950    3.797319   -0.799865
C      2.496241    2.859354   -1.218962
C      2.168854    1.613858   -0.847256
C      2.811216    0.372204   -1.143929
C      4.161162    0.086313   -1.563171
C      4.342593   -1.239395   -1.592200
C      3.059038   -1.933136   -1.226635
C      2.126217   -0.780461   -0.950758
C      0.743528   -0.832061   -0.345706
C     -0.091711   -1.984787   -0.332401
C      0.111066   -3.080428   -1.210938
C     -0.685034   -4.223872   -1.211397
C     -1.742912   -4.303478   -0.336075
C     -2.008113   -3.227277    0.509952
C     -1.225329   -2.038001    0.539978
C     -1.536218   -0.940595    1.419923
C     -2.650601   -0.995353    2.380396
C     -3.021045   -0.020735    3.335201
C     -2.129916    1.024688    3.286921
C     -2.124458    2.077497    4.164867
N     -1.020984    2.836026    3.857370
C     -0.334777    2.262348    2.808399
C     -1.048508    1.168114    2.371360
C     -0.715112    0.238964    1.330743
C      0.302262    0.341557    0.338237
C      0.908706    1.618960   -0.120823
C      0.418547    2.871202   -0.149425
H      1.771836    4.546777   -0.092752
H      0.961286    4.293637   -1.667996
H      3.360418    3.145534   -1.797486
H      4.905019    0.838151   -1.775646
H      5.260372   -1.745031   -1.850594
H      2.763277   -2.536577   -2.085915
H      3.195247   -2.565438   -0.344173
H      0.867924   -3.039960   -1.982923
H     -0.483462   -5.031554   -1.909274
H     -2.380315   -5.183021   -0.319046
H     -2.873598   -3.351063    1.152868
H     -3.281230   -1.882300    2.405765
H     -3.840245   -0.138623    4.028458
H     -2.765638    2.339433    4.995372
H     -0.722505    3.660966    4.361213
H      0.607902    2.689509    2.498247
H     -0.548748    3.185893    0.211487
