45

C     -0.643132   -1.948192   -4.493151
C      0.391358   -0.990174   -3.854206
C      0.573364    0.256485   -4.755281
C      1.745496   -1.727568   -3.770404
C      2.394867   -2.203543   -4.928821
C      3.614744   -2.877221   -4.850128
C      4.206287   -3.095591   -3.612375
C      3.578801   -2.634651   -2.456473
C      2.364132   -1.937293   -2.527201
N      1.730128   -1.531413   -1.347632
C      0.545757   -0.787280   -1.307654
C      0.021283   -0.385866   -0.067834
C     -1.190936    0.314359    0.030838
C     -1.721395    0.737445    1.338018
C     -3.047987    0.396822    1.723910
C     -3.584040    0.783612    2.959345
C     -2.767599    1.513857    3.795346
C     -1.474713    1.853428    3.439432
C     -0.924527    1.484258    2.226660
C     -0.901159    2.616422    4.547068
O      0.223945    3.070929    4.581848
N     -1.870259    2.697772    5.499368
C     -3.015153    2.062100    5.128286
O     -4.049359    1.953666    5.754590
C     -1.880292    0.592227   -1.154635
C     -1.377889    0.178537   -2.392162
C     -0.161355   -0.523119   -2.489430
H     -0.333088   -2.289134   -5.487222
H     -0.789770   -2.840689   -3.871975
H     -1.622760   -1.474287   -4.620864
H      1.303319    0.951896   -4.322267
H     -0.362390    0.809156   -4.893798
H      0.926006   -0.004441   -5.759186
H      1.952603   -2.058225   -5.911451
H      4.096590   -3.236557   -5.755642
H      5.150213   -3.629133   -3.544234
H      4.044104   -2.826198   -1.493452
H      2.312129   -1.494470   -0.521912
H      0.565611   -0.638765    0.839590
H     -3.668955   -0.193220    1.049268
H     -4.595485    0.518103    3.249088
H      0.090631    1.778684    1.975139
H     -1.751436    3.169267    6.381442
H     -2.819260    1.141816   -1.129550
H     -1.955606    0.412669   -3.283308
