37

C      4.196898    4.194900   -0.828163
C      3.856393    4.879073   -1.995496
C      2.721049    4.327853   -2.631283
C      2.076995    4.683320   -3.760124
S      0.772888    3.601367   -3.974507
C      1.120748    2.681889   -2.528413
C      0.275724    1.520240   -2.137797
C     -0.832840    1.127900   -2.926024
C     -1.656255    0.040538   -2.596697
C     -1.392107   -0.704673   -1.444884
C     -2.198274   -1.806485   -1.079654
O     -3.294733   -2.284390   -1.756069
C     -3.761297   -3.355616   -1.046378
C     -4.859530   -4.141872   -1.370361
C     -5.128213   -5.179220   -0.478402
C     -4.312744   -5.355868    0.636258
N     -3.241894   -4.595989    0.959936
C     -2.984273   -3.587898    0.089235
C     -2.009685   -2.592978    0.035154
C     -0.924603   -2.293189    0.903549
N     -0.655265   -2.984045    1.998730
S      0.692669   -2.203432    2.608302
N      0.899915   -1.003012    1.460186
C     -0.079693   -1.158065    0.543317
C     -0.295287   -0.350074   -0.626391
C      0.519066    0.754010   -0.985117
C      2.232706    3.228859   -1.913854
S      3.177784    2.836045   -0.405414
H      5.020976    4.419050   -0.164421
H      4.417662    5.734495   -2.351370
H      2.278220    5.484909   -4.456685
H     -1.093906    1.665293   -3.835494
H     -2.493779   -0.210413   -3.244455
H     -5.458094   -3.956530   -2.252525
H     -5.967190   -5.846872   -0.648894
H     -4.516244   -6.163418    1.336950
H      1.343566    0.977693   -0.320622
