35

C     -1.576942    0.726277   -1.731277
C     -0.468228    1.094479   -0.742436
C      0.121745    2.264233   -1.072276
C     -0.523429    2.754807   -2.268537
C     -1.532109    1.881781   -2.695723
C     -2.322989    2.106812   -3.831208
C     -2.143264    3.256878   -4.630540
C     -1.127461    4.179344   -4.238501
N     -0.808441    5.321632   -4.865877
S      0.433542    6.003165   -3.993705
N      0.628584    4.884564   -2.777902
C     -0.279520    3.922880   -3.007666
C     -0.111688    0.255250    0.417015
C      0.922122    0.596358    1.329728
C      1.308966   -0.172519    2.462597
C      2.348332    0.260928    3.300462
C      2.740573   -0.484018    4.418555
C      2.101982   -1.682649    4.726654
C      1.066993   -2.142851    3.917485
C      0.668038   -1.394665    2.788639
C     -0.389309   -1.809746    1.913229
N     -1.124054   -2.930575    2.039498
S     -2.200785   -2.943346    0.786289
N     -1.795271   -1.536106    0.020468
C     -0.785032   -0.971981    0.709144
H     -2.556226    0.690516   -1.244010
H     -1.352330   -0.205130   -2.260191
H      0.924948    2.792832   -0.585659
H     -3.090305    1.384569   -4.104835
H     -2.749094    3.440887   -5.510560
H      1.472836    1.522487    1.158465
H      2.871473    1.192873    3.092174
H      3.549296   -0.124102    5.050510
H      2.410028   -2.257863    5.596052
H      0.569453   -3.079584    4.159987
