23

Cl    -5.795780    1.468373   -1.234661
C     -4.078135    1.537121   -1.110673
C     -3.403380    2.668663   -1.588106
C     -2.008530    2.767387   -1.507888
C     -1.363390    1.680495   -0.931294
O     -0.025204    1.525292   -0.735298
C      0.086463    0.291560   -0.137425
C      1.438809   -0.158026    0.200106
C      1.641135   -1.395057    0.807808
C      2.941212   -1.789496    1.114324
C      3.998591   -0.941894    0.807041
C      3.712159    0.271019    0.203159
N      2.462966    0.681113   -0.106145
N     -1.070274   -0.328464    0.052396
C     -1.998666    0.547971   -0.449779
C     -3.393336    0.459158   -0.534721
H     -3.965872    3.488996   -2.030173
H     -1.462654    3.630047   -1.869037
H      0.800188   -2.042193    1.039344
H      3.124974   -2.749587    1.588436
H      5.022445   -1.219242    1.032538
H      4.504606    0.967604   -0.056378
H     -3.912813   -0.416912   -0.164825
