28

N     -2.370051   -1.780520   -0.292528
C     -1.569645   -0.976182   -0.048019
C     -0.595596    0.009674    0.270345
C     -0.537739    1.262824   -0.539379
O      0.532567    1.759449   -0.888372
C     -1.810198    1.904458   -0.961029
C     -1.850447    2.538520   -2.209288
C     -3.021956    3.162229   -2.640409
C     -4.150983    3.165423   -1.822258
C     -4.108989    2.554634   -0.568859
C     -2.938965    1.929458   -0.131879
C      0.304324   -0.162560    1.259686
C      0.440074   -1.412325    2.107321
C      1.935790   -1.401965    2.431573
C      2.305066    0.079288    2.505303
N      1.314138    0.706296    1.647810
H     -0.970372    2.547555   -2.849576
H     -3.052485    3.648354   -3.612512
H     -5.063344    3.652481   -2.158655
H     -4.988174    2.571551    0.071220
H     -2.925075    1.487403    0.860894
H      0.159593   -2.335923    1.593701
H     -0.153201   -1.309186    3.022814
H      2.170346   -1.936983    3.356551
H      2.493791   -1.881724    1.617050
H      3.324238    0.263912    2.153447
H      2.202381    0.461209    3.526121
H      1.644474    1.336791    0.908702
