49

Si    -1.243142    6.762760    1.679428
C     -2.712566    7.051788    0.556370
C     -3.060188    5.914512   -0.073518
C     -4.157315    5.780734   -1.010030
C     -4.393309    4.576626   -1.563017
C     -3.576210    3.404825   -1.251767
C     -2.532964    3.444768   -0.388219
C     -1.774210    2.205040   -0.164870
C     -2.290412    1.163708    0.606245
C     -1.532613    0.009513    0.801027
C     -0.271984   -0.077424    0.214763
N      0.259111    0.928216   -0.523768
C     -0.501986    2.035299   -0.699491
C      0.574999   -1.272050    0.415791
C      1.787507   -1.083850    0.986504
C      2.715784   -2.173714    1.273614
C      2.448834   -3.468495    0.989050
C      3.464910   -4.417161    1.292522
C      4.101121   -4.807636    2.454987
C      5.054562   -5.797151    2.110626
C      4.984965   -5.978013    0.746655
N      4.017527   -5.138080    0.259230
C      1.148917   -3.761242    0.370470
C      0.692778   -4.986988    0.035802
Si    -0.997814   -4.895911   -0.742482
C     -0.942886   -3.042256   -0.522912
C      0.203808   -2.648852    0.070233
C     -2.228433    4.729634    0.250708
C     -1.243388    4.969899    1.139774
H     -0.035293    7.490481    1.223031
H     -1.588006    6.924103    3.112219
H     -3.177549    8.020504    0.469189
H     -4.768165    6.643705   -1.249108
H     -5.207982    4.444175   -2.268595
H     -3.848712    2.485794   -1.765304
H     -3.271851    1.249480    1.064832
H     -1.918039   -0.800790    1.413268
H     -0.040380    2.812503   -1.304750
H      2.124924   -0.086228    1.259753
H      3.663015   -1.881237    1.721075
H      3.895261   -4.422590    3.446016
H      5.724097   -6.315464    2.784830
H      5.539531   -6.627269    0.082064
H      3.751416   -5.048553   -0.713355
H      1.190984   -5.932577    0.179911
H     -2.045955   -5.527345    0.093929
H     -0.988376   -5.300331   -2.168722
H     -1.762864   -2.424669   -0.852211
H     -0.521605    4.270710    1.531305
