40

O      3.615630   -0.663759    0.112486
C      2.570535   -0.321284    0.663417
C      2.470682   -0.520304    2.138723
C      1.265271   -0.843684    2.775966
C      1.234686   -1.048773    4.157828
C      2.405907   -0.945336    4.907390
C      3.612549   -0.642872    4.278800
C      3.647201   -0.436652    2.898429
C      1.456879    0.278171   -0.074600
N      0.527040    1.046851    0.522356
N     -0.243924    1.452574   -0.513072
N      0.107369    0.991411   -1.731973
C      1.188381    0.235785   -1.476211
C      1.869299   -0.466316   -2.562730
C      2.318377   -1.784833   -2.413974
C      2.951964   -2.442680   -3.472446
C      3.133569   -1.793719   -4.692120
C      2.679510   -0.487493   -4.858017
C      2.047789    0.171197   -3.800436
C     -1.363149    2.305525   -0.324732
C     -2.146677    2.690421   -1.422595
C     -3.247328    3.528588   -1.233327
C     -3.568570    3.984064    0.045226
C     -2.791778    3.604312    1.139671
C     -1.689545    2.766067    0.959576
H      0.340815   -0.947686    2.214010
H      0.295941   -1.293428    4.649175
H      2.379174   -1.106680    5.982436
H      4.527599   -0.570762    4.861573
H      4.596357   -0.209199    2.416276
H      2.184143   -2.320395   -1.477898
H      3.304720   -3.462572   -3.341892
H      3.627377   -2.306804   -5.513198
H      2.814939    0.020199   -5.809312
H      1.693630    1.189780   -3.946938
H     -1.913135    2.345619   -2.428285
H     -3.854320    3.826451   -2.084822
H     -4.425858    4.637252    0.188699
H     -3.043933    3.962526    2.134779
H     -1.095560    2.484152    1.826722
