34

C     -3.559401   -2.992259   -4.304443
N     -2.346286   -2.571183   -3.647463
C     -1.538325   -3.324654   -2.846429
C     -0.498460   -2.501254   -2.459945
C      0.664163   -2.818256   -1.593697
N      0.365717   -2.390434   -0.244629
C      0.765910   -1.143168    0.192860
O      1.446859   -0.391905   -0.491168
N      0.314967   -0.911805    1.474528
C      0.451520    0.268056    2.234064
C      0.029708    0.211676    3.582182
C      0.115936    1.331946    4.416664
C      0.622251    2.491367    3.876300
C      1.029621    2.556773    2.565670
C      0.956244    1.467051    1.719940
O      1.492170    3.791990    2.230247
C      1.332635    4.492097    3.480334
O      0.777961    3.672419    4.530668
C     -0.790873   -1.266339   -3.085070
N     -1.914277   -1.309297   -3.805389
H     -3.426818   -2.873326   -5.382675
H     -4.380695   -2.366747   -3.945941
H     -3.757127   -4.040231   -4.066176
H     -1.757538   -4.360506   -2.628870
H      1.578174   -2.343132   -1.964464
H      0.831442   -3.899866   -1.558349
H     -0.508407   -2.724617    0.129641
H     -0.043375   -1.721044    1.957373
H     -0.369804   -0.710453    3.997183
H     -0.204527    1.291217    5.451265
H      1.283164    1.575090    0.693110
H      0.670454    5.350681    3.319666
H      2.312993    4.860286    3.804143
H     -0.227631   -0.341393   -3.035811
