34

C      4.980831   -2.631230    1.979069
C      5.386950   -1.467739    1.321881
C      4.437687   -0.622822    0.743824
C      3.083920   -0.945652    0.825589
C      2.678513   -2.107119    1.481626
C      3.624552   -2.952382    2.059647
O      1.358083   -2.465182    1.587007
C      0.464406   -1.603618    1.003575
C     -0.887500   -1.924379    1.084282
C     -1.835401   -1.075899    0.504205
C     -1.443687    0.099001   -0.160914
C     -2.461782    0.962361   -0.755487
N     -3.774721    0.806700   -0.769545
C     -4.226511    1.904152   -1.457090
C     -5.522657    2.307909   -1.801604
C     -5.673296    3.502784   -2.522519
C     -4.561562    4.272861   -2.889164
C     -3.259908    3.881659   -2.551657
C     -3.155026    2.693852   -1.838656
O     -2.014846    2.095053   -1.391109
C     -0.076314    0.406141   -0.232279
C      0.868324   -0.442752    0.347766
O      2.189197   -0.084248    0.242185
H      5.721455   -3.288060    2.428668
H      6.443606   -1.219248    1.260116
H      4.752154    0.282432    0.232383
H      3.307198   -3.856987    2.570468
H     -1.205778   -2.828921    1.594993
H     -2.891456   -1.335378    0.572530
H     -6.380468    1.709460   -1.516184
H     -6.671821    3.834908   -2.800449
H     -4.711996    5.194909   -3.448233
H     -2.388850    4.462916   -2.825820
H      0.265231    1.305976   -0.738302
