46

C     -2.906232    5.216474    2.374037
C     -2.987115    6.339969    3.366534
C     -1.835637    6.425166    4.044012
C     -0.929896    5.406996    3.577437
C     -1.511503    4.679851    2.604841
C     -0.948325    3.546564    1.853639
C     -1.703414    2.887447    0.872055
C     -1.176321    1.807682    0.150889
C      0.124644    1.356953    0.391535
C      0.885363    2.005723    1.368242
C      0.355758    3.085432    2.087324
C      0.682029    0.223058   -0.346763
S      0.807130    0.307049   -2.075007
C      1.522242   -1.257091   -2.207175
C      1.656831   -1.793163   -0.961554
Si     2.333768   -3.396590   -0.240344
C      1.862357   -2.742985    1.496184
C      1.302282   -1.515455    1.426100
C      1.186604   -0.975278    0.102157
C      1.875374   -1.780046   -3.509916
C      2.997411   -1.345313   -4.254032
C      3.362393   -1.884831   -5.529647
C      2.647222   -2.909998   -6.187077
C      1.540537   -3.331625   -5.448740
C      0.691980   -4.316531   -5.889661
S     -0.574168   -4.597888   -4.761631
C      0.014363   -3.392966   -3.684276
C      1.158908   -2.797297   -4.162702
H     -3.671134    4.463106    2.588480
H     -3.030179    5.597878    1.355319
H     -3.848251    6.975924    3.503751
H     -1.601176    7.136932    4.820913
H      0.062484    5.287213    3.983318
H     -2.720369    3.196866    0.645058
H     -1.797580    1.319037   -0.596699
H      1.903900    1.683096    1.573370
H      0.990936    3.557346    2.831838
H      1.532628   -4.599938   -0.575894
H      3.805719   -3.547161   -0.358252
H      2.042614   -3.336142    2.378056
H      0.956027   -0.974247    2.299463
H      3.626243   -0.557116   -3.837628
H      4.247175   -1.476925   -6.020177
H      2.941135   -3.302017   -7.151821
H      0.733136   -4.888500   -6.806344
H     -0.522528   -3.196527   -2.766201
