34

C     -1.234879    5.056600    0.367278
C     -1.270234    3.631086    0.837459
N     -2.390601    2.970489    0.813827
O     -2.258245    1.682237    1.334356
C      0.055545    3.082432    1.331546
O      0.636819    3.656105    2.238932
N      0.529442    2.006909    0.618593
C      1.824974    1.418064    0.887290
C      1.779560    0.116711    1.714738
N      1.226903   -1.085849    1.074735
C     -0.215944   -1.245391    1.240800
C     -0.894133   -1.990135    0.085495
C     -0.065998   -3.191158   -0.350084
C      1.370130   -2.790869   -0.691676
C      1.724003   -1.362227   -0.265894
H     -2.132982    5.289393   -0.210200
H     -1.187978    5.718243    1.236894
H     -0.356722    5.223045   -0.262112
H     -3.182977    1.371968    1.365079
H     -0.119746    1.529734    0.003536
H      2.439174    2.148095    1.425340
H      2.310557    1.254666   -0.078610
H      1.263403    0.302280    2.665136
H      2.815865   -0.121950    1.990960
H     -0.720830   -0.285530    1.362600
H     -0.385835   -1.803793    2.169975
H     -1.893939   -2.317915    0.391188
H     -1.030280   -1.305698   -0.762443
H     -0.533825   -3.688860   -1.205786
H     -0.046003   -3.922571    0.465777
H      2.056818   -3.504937   -0.217612
H      1.525540   -2.884071   -1.773083
H      1.308507   -0.652115   -0.992830
H      2.814369   -1.254946   -0.303228
