40

Si    -1.230782    2.515009   -4.497472
C      0.113220    3.151971   -5.654907
C      1.285524    3.298339   -5.010645
C      1.267975    2.938703   -3.601061
C      0.073155    2.527440   -3.130032
C     -0.209587    2.071074   -1.785038
C      0.249720    0.818775   -1.278945
C     -0.060529    0.425214    0.048698
N      0.238946   -0.710621    0.791857
C     -0.313830   -0.571651    2.051434
C     -0.958157    0.634478    2.115739
O     -1.537476    0.855020    3.340664
C     -1.237716   -0.272811    4.073425
C     -1.600505   -0.556785    5.409011
C     -1.195667   -1.785352    6.002470
C     -0.450051   -2.600957    5.144503
C      0.076955   -3.837379    5.428188
O      0.748023   -4.329592    4.330077
C      0.651567   -3.395368    3.323666
C     -0.068695   -2.356371    3.813418
C     -0.501312   -1.130855    3.296428
C     -0.799825    1.235303    0.889302
C     -1.268995    2.483879    0.466423
C     -1.983253    3.465690    1.069406
O     -2.126381    4.478627    0.151256
C     -1.487549    4.088617   -1.004921
C     -0.942695    2.832509   -0.856429
H     -1.672312    1.146760   -4.867126
H     -2.296538    3.526920   -4.288814
H     -0.089307    3.359793   -6.693571
H      2.193271    3.654141   -5.482534
H      2.168395    3.005904   -3.002031
H      0.835851    0.161841   -1.917933
H      0.770273   -1.517099    0.491242
H     -2.185080    0.162377    5.974877
H     -1.451769   -2.042980    7.022612
H      0.079202   -4.484057    6.294433
H      1.136821   -3.650477    2.393847
H     -2.429492    3.628018    2.039716
H     -1.518437    4.813719   -1.806000
