33

C      4.332572    2.347051    0.136982
C      3.006863    1.771611    0.534976
C      2.096482    1.341742   -0.432845
C      0.875024    0.755889   -0.053952
O      0.007735    0.378513   -1.089399
C      0.387134   -0.777512   -1.769457
O      1.380221   -1.455311   -1.527389
C     -0.575758   -1.069333   -2.806645
C     -0.617637   -2.095126   -3.734239
C     -1.786921   -1.901654   -4.508092
C     -2.391472   -0.772781   -4.009687
O     -1.669906   -0.261185   -2.980143
C      0.500781    0.614136    1.292699
C     -0.779095    0.077786    1.799837
C     -1.881366   -0.344234    0.873609
C     -0.956648   -0.012012    3.127375
C      0.047280    0.395514    4.117640
O     -0.168601    0.274705    5.317738
O      1.222489    0.922959    3.622520
C      1.447670    1.035684    2.234238
C      2.681155    1.596418    1.879524
H      5.070814    1.546564    0.028650
H      4.254240    2.887693   -0.812109
H      4.690583    3.059528    0.887599
H      2.336154    1.450922   -1.488345
H      0.115982   -2.884883   -3.830586
H     -2.145351   -2.509336   -5.327498
H     -3.292583   -0.231201   -4.263800
H     -1.579372   -1.209741    0.276609
H     -2.177171    0.476335    0.212150
H     -2.782779   -0.641562    1.422351
H     -1.874880   -0.395381    3.558918
H      3.376000    1.897294    2.660442
