40

C     -2.682310   -1.111278   -0.965682
C     -2.304576   -0.173122   -2.104082
N     -0.854654    0.027024   -2.192551
C     -0.139330   -0.952203   -2.890171
O     -0.718315   -1.783228   -3.605661
C      1.387712   -1.079337   -2.725452
O      1.879465   -1.100822   -1.393580
C      1.464792   -2.107606   -0.568543
C      0.878924   -3.308887   -0.967292
C      0.493555   -4.252040   -0.009499
C      0.700349   -4.002805    1.346227
C      1.298642   -2.811270    1.747758
C      1.682033   -1.870244    0.791308
C     -0.185859    1.125362   -1.650094
N      1.022193    1.548918   -1.943800
N      1.384091    2.674429   -1.237962
C      0.436049    3.091454   -0.420800
C      0.556937    4.262927    0.456631
C      1.738758    5.017797    0.453405
C      1.871280    6.132960    1.280143
C      0.809453    6.470787    2.098770
N     -0.347248    5.778433    2.139946
C     -0.444360    4.697709    1.323253
S     -0.979311    2.116114   -0.495676
H     -2.341708   -0.726077    0.000292
H     -2.234721   -2.100645   -1.104695
H     -3.768824   -1.234010   -0.921068
H     -2.821793    0.786481   -2.003354
H     -2.670024   -0.598936   -3.046299
H      1.864836   -0.254747   -3.265701
H      1.726957   -1.980082   -3.253498
H      0.712783   -3.551053   -2.012306
H      0.035322   -5.185993   -0.325678
H      0.402410   -4.740006    2.087174
H      1.470727   -2.614579    2.802455
H      2.151762   -0.941432    1.106436
H      2.567974    4.740337   -0.195932
H      2.782641    6.720756    1.282394
H      0.861907    7.330079    2.761401
H     -1.399521    4.187249    1.408457
