38

C     -2.450515    1.666148   -1.171960
C     -2.037838    0.355327   -0.560868
C     -2.485425   -0.974855   -0.497950
C     -1.566168   -1.680139    0.280011
N     -0.578660   -0.787506    0.679839
C     -0.878055    0.422503    0.167914
C     -0.368716    1.739067    0.149025
C     -1.278005    2.513728   -0.640233
C     -1.000415    3.875720   -0.819824
O     -1.724392    4.795943   -1.527930
C     -1.064215    5.991364   -1.417250
C      0.080690    5.875565   -0.649719
C      0.096135    4.534573   -0.287173
C      1.006396    3.770432    0.499845
C      2.151682    4.094764    1.151925
O      2.617913    2.947555    1.753986
C      1.739823    1.927340    1.457043
C      0.719193    2.403106    0.674697
C     -1.550322   -3.065749    0.656499
S     -0.283787   -3.752703    1.647882
C     -0.966189   -5.346253    1.633245
C     -2.095392   -5.302965    0.899932
N     -2.935684   -6.345674    0.638739
C     -3.903738   -5.723038   -0.144696
C     -3.620453   -4.352222   -0.326274
C     -2.412729   -4.070435    0.370963
H     -3.402853    2.023551   -0.773441
H     -2.443164    1.630899   -2.263846
H     -3.372623   -1.383401   -0.961075
H      0.216354   -1.028639    1.255395
H     -1.530989    6.818098   -1.935180
H      0.777189    6.664701   -0.408811
H      2.745689    4.984379    1.300370
H      1.997866    0.965826    1.876167
H     -0.509178   -6.180465    2.146134
H     -2.852885   -7.306890    0.946027
H     -4.732814   -6.309712   -0.519316
H     -4.228961   -3.664405   -0.896980
