37

C      6.773591   -1.856496   -3.396470
C      5.801325   -1.139195   -4.077019
C      4.512696   -1.067905   -3.550600
C      4.218739   -1.722064   -2.351542
C      2.870338   -1.673184   -1.734897
C      2.557305   -2.385268   -0.575207
C      1.275268   -2.294089   -0.029906
C      0.313141   -1.489375   -0.640482
C     -1.033951   -1.358456   -0.094650
C     -1.991507   -2.353122   -0.269825
N     -3.259884   -2.329711    0.195097
C     -3.571921   -1.216445    0.890501
S     -5.126572   -1.017688    1.549624
C     -4.714737    0.496537    2.205359
N     -5.621001    1.208137    2.909170
C     -5.158928    2.385749    3.372490
C     -3.880634    2.877386    3.178135
C     -2.976620    2.114500    2.443193
C     -3.401468    0.867455    1.931270
C     -2.729045   -0.141574    1.151974
C     -1.415477   -0.225222    0.633908
C      0.706280   -0.813420   -1.791757
N      1.941076   -0.886924   -2.346112
N      5.170744   -2.436174   -1.686875
C      6.412878   -2.483873   -2.218123
H      7.786506   -1.927612   -3.775865
H      6.039672   -0.632469   -5.007727
H      3.745295   -0.504726   -4.073267
H      3.305505   -3.008638   -0.093365
H      1.043115   -2.848755    0.876739
H     -1.748848   -3.254570   -0.831497
H     -5.885690    2.961332    3.941677
H     -3.591409    3.838535    3.589798
H     -1.966559    2.474216    2.271748
H     -0.707985    0.581203    0.810543
H      0.013669   -0.167225   -2.326670
H      7.135835   -3.061985   -1.649851
