42

C     -1.551728   -0.450557   -4.982467
C     -2.519849   -0.218384   -3.830782
C     -1.930993   -0.384289   -2.418174
C     -0.751481    0.574414   -2.145495
C     -0.320402    0.543443   -0.668331
C     -0.241764   -0.856142   -0.128265
C     -0.815116   -1.922694   -0.797657
S     -0.623857   -3.395002    0.027319
C      0.195762   -2.633931    1.313052
N      0.610383   -3.354854    2.367705
C      1.216253   -2.601112    3.284979
N      1.440661   -1.279648    3.242236
C      1.025408   -0.577233    2.160861
N      1.273986    0.807358    2.087947
C      2.653889    1.033824    1.598932
C      2.907930    2.547628    1.496371
O      2.705733    3.205693    2.759012
C      1.367722    2.975600    3.236470
C      1.081389    1.473162    3.396104
C      0.355568   -1.268095    1.123970
C     -1.519221   -1.844216   -2.119324
H     -1.152426   -1.468221   -4.978440
H     -2.069873   -0.304945   -5.936263
H     -0.714958    0.253059   -4.953374
H     -3.370207   -0.902099   -3.944517
H     -2.926716    0.796389   -3.924008
H     -2.734383   -0.117522   -1.715180
H      0.106844    0.290856   -2.767969
H     -1.020341    1.601638   -2.418361
H     -1.044401    1.108167   -0.068095
H      0.646822    1.047554   -0.580999
H      1.571948   -3.116986    4.171414
H      2.798099    0.578889    0.611736
H      3.381945    0.593965    2.293921
H      3.942221    2.731393    1.189308
H      2.249116    3.006941    0.749670
H      0.658916    3.441579    2.541518
H      1.270785    3.478588    4.203630
H      1.768757    1.066418    4.149558
H      0.051294    1.335676    3.745263
H     -2.410791   -2.482597   -2.122782
H     -0.837704   -2.221618   -2.890036
