36

C      5.551957    3.055948   -1.134334
C      5.185139    2.749136   -2.446545
C      4.021790    2.018495   -2.695419
C      3.228836    1.597048   -1.629033
C      3.594953    1.903455   -0.319077
C      4.756201    2.632877   -0.068065
O      2.845707    1.510117    0.761175
C      1.712571    0.796359    0.464766
C      0.917759    0.376445    1.526686
C     -0.247580   -0.354647    1.274350
C     -0.634908   -0.677016   -0.039638
C     -1.861550   -1.448613   -0.300302
C     -1.841283   -2.592701   -1.105701
C     -3.012736   -3.317241   -1.343969
C     -4.225308   -2.929001   -0.794324
N     -5.333656   -3.653521   -1.046759
C     -6.477756   -3.215703   -0.479033
C     -6.520104   -2.090544    0.317665
N     -5.420167   -1.353214    0.582256
C     -4.267209   -1.773787    0.023595
C     -3.094043   -1.062249    0.252087
C      0.184023   -0.241436   -1.095876
C      1.346864    0.488855   -0.842606
O      2.095506    0.881759   -1.923908
H      6.458168    3.625186   -0.942432
H      5.805922    3.079697   -3.275664
H      3.735117    1.779421   -3.715505
H      5.040070    2.870963    0.953039
H      1.201980    0.613275    2.548129
H     -0.850344   -0.683389    2.119475
H     -0.909541   -2.941134   -1.547888
H     -2.977816   -4.205677   -1.969775
H     -7.366461   -3.800714   -0.685183
H     -7.443810   -1.747194    0.768707
H     -3.154631   -0.170778    0.873921
H     -0.085727   -0.458002   -2.127061
