32

C      2.433636   -3.921687    3.465644
C      3.188581   -4.506458    2.469726
N      3.160652   -4.119808    1.175582
C      2.360855   -3.113112    0.818848
N      2.343373   -2.742082   -0.461594
C      1.534259   -1.719630   -0.837134
C      0.702484   -1.008261    0.015501
C     -0.138576    0.079531   -0.465946
C     -0.353878    0.663191   -1.701852
C     -1.308736    1.696377   -1.512745
C     -1.947096    2.643979   -2.322818
C     -2.856068    3.514529   -1.730892
O     -3.561286    4.489872   -2.365118
C     -4.325725    5.099557   -1.420898
C     -4.121021    4.527987   -0.185178
C     -3.166471    3.495295   -0.374832
C     -2.527321    2.547086    0.434174
C     -1.618583    1.677105   -0.158863
O     -0.913983    0.702744    0.474373
C      0.725121   -1.400673    1.352574
C      1.554067   -2.456693    1.768344
C      1.599274   -2.874984    3.106272
H      2.494016   -4.271205    4.489904
H      3.861898   -5.331202    2.687089
H      1.590065   -1.491983   -1.898461
H      0.116704    0.384116   -2.633937
H     -1.744645    2.705815   -3.386987
H     -4.949932    5.906870   -1.778209
H     -4.601084    4.820355    0.737701
H     -2.730550    2.486221    1.498072
H      0.098998   -0.888688    2.080105
H      0.989254   -2.389437    3.863479
