39

C     -2.523988   -5.112937    3.048549
S     -1.024351   -4.331070    2.826295
C     -1.632058   -3.252997    1.602383
C     -0.732100   -2.258962    0.974644
C      0.614677   -2.107904    1.293849
C      1.392727   -1.134076    0.643364
C      2.741971   -0.985212    0.965571
C      3.523115   -0.023277    0.327282
C      2.997669    0.831331   -0.657638
C      1.624092    0.695482   -1.000402
C      1.118801    1.562920   -1.990550
C      1.924508    2.514869   -2.610967
C      3.270167    2.633702   -2.261733
C      4.083948    3.590944   -2.884422
C      5.420230    3.701835   -2.530915
C      5.897568    2.846807   -1.562029
N      5.139800    1.914794   -0.943957
C      3.830350    1.792712   -1.277714
C      0.820099   -0.301469   -0.336989
C     -0.541169   -0.542125   -0.576813
N     -1.305239   -1.476476    0.041311
C     -2.979003   -3.517222    1.389353
N     -3.773607   -2.856532    0.494497
C     -5.046327   -3.328072    0.502247
C     -5.515066   -4.362691    1.316124
N     -4.763822   -5.047436    2.218760
C     -3.481295   -4.587835    2.225611
H     -2.636709   -5.913994    3.764484
H      1.083004   -2.735133    2.045041
H      3.209376   -1.615696    1.719495
H      4.572942    0.057896    0.610633
H      0.079024    1.517297   -2.303881
H      1.487753    3.161176   -3.369351
H      3.680395    4.253205   -3.646422
H      6.068519    4.433740   -2.998062
H      6.934837    2.884207   -1.241803
H     -1.102613    0.030481   -1.308512
H     -5.717497   -2.833412   -0.193863
H     -6.553383   -4.675830    1.255045
