45

Si    -0.747489    4.572986    4.149572
C     -2.127088    5.756232    4.628814
C     -3.198366    5.593314    3.834119
C     -3.063290    4.567446    2.810779
C     -1.884305    3.907052    2.776746
C     -1.420512    2.836725    1.897004
N     -0.131985    2.379160    2.034608
C      0.366750    1.371443    1.249956
C     -0.309772    0.660470    0.263098
C      0.288755   -0.390745   -0.536925
S     -0.228723   -2.015109   -0.341390
C      0.849707   -2.613790   -1.546055
C      0.854892   -4.037709   -1.837353
C      1.046207   -5.065776   -0.879445
C      1.040712   -6.473949   -1.189526
C      0.840114   -7.005619   -2.486263
C      0.652551   -5.982068   -3.401144
C      0.416100   -6.114585   -4.742236
O      0.273633   -4.875556   -5.301442
C      0.426707   -3.949798   -4.303724
C      0.661130   -4.584559   -3.109535
C      1.601960   -1.584849   -2.073846
N      2.552688   -1.754764   -3.038627
C      3.157041   -0.574258   -3.347383
C      2.859292    0.661574   -2.761670
N      1.919269    0.864563   -1.797813
C      1.292081   -0.305775   -1.476241
C     -1.640946    1.091609    0.059447
N     -2.508265    0.609681   -0.848752
S     -3.919284    1.458924   -0.671987
N     -3.507316    2.471503    0.570668
C     -2.228269    2.211244    0.899647
H     -0.489950    3.599035    5.239923
H      0.430346    5.319347    3.648386
H     -2.018645    6.454872    5.442444
H     -4.114653    6.164931    3.928268
H     -3.892975    4.396842    2.133511
H      1.408615    1.124587    1.475137
H      1.216143   -4.786989    0.160092
H      1.200395   -7.173129   -0.365424
H      0.834839   -8.063814   -2.706455
H      0.318655   -6.948875   -5.423686
H      0.342440   -2.918196   -4.614560
H      3.924174   -0.642706   -4.113510
H      3.396747    1.556416   -3.072344
