41

C      4.041179    2.943179   -1.348651
N      3.062666    1.896590   -1.181613
C      1.730140    2.165454   -0.829312
O      1.184820    3.228909   -0.618056
C      1.125822    0.822148   -0.775654
C     -0.006853    0.160181   -0.530022
C     -1.255304    0.733846   -0.168343
C     -1.746543    2.023710   -0.339439
C     -3.054394    2.076251    0.198666
C     -3.336170    0.818403    0.684457
C     -4.531447    0.358068    1.323805
C     -4.806192   -0.902589    1.827699
C     -6.116898   -0.865608    2.361424
C     -6.571907    0.413287    2.155317
O     -5.626171    1.159199    1.531197
O     -2.254436    0.014959    0.458665
N      0.226048   -1.209125   -0.672481
C     -0.748953   -2.256254   -0.489785
C      1.559794   -1.478985   -1.020941
O      2.105889   -2.544625   -1.219045
C      2.160129   -0.134513   -1.095558
C      3.294905    0.527701   -1.331617
C      4.549761   -0.047175   -1.669760
C      4.866540   -1.298509   -2.195396
C      6.271474   -1.380204   -2.349023
C      6.761664   -0.177714   -1.917404
O      5.749686    0.624954   -1.515328
H      3.566875    3.925845   -1.269992
H      4.505635    2.859247   -2.335340
H      4.796535    2.860764   -0.562038
H     -1.224753    2.847560   -0.807274
H     -3.717737    2.929855    0.230684
H     -4.129537   -1.745766    1.808860
H     -6.660461   -1.669582    2.837105
H     -7.496378    0.926071    2.381924
H     -1.045140   -2.294863    0.562358
H     -0.324426   -3.226266   -0.764706
H     -1.618857   -2.064679   -1.124574
H      4.160157   -2.077425   -2.448536
H      6.847365   -2.212910   -2.727239
H      7.754469    0.242521   -1.837099
