31

C     -1.913837   -4.172184    0.835424
C     -1.018399   -4.889941    1.607907
N      0.123131   -4.404067    2.132395
C      0.356412   -3.105613    1.845539
S      1.752990   -2.329759    2.427543
C      1.315237   -0.865573    1.684151
N      2.099948    0.222515    1.796876
C      1.625465    1.316846    1.152994
C      0.443542    1.416250    0.412036
C      0.056176    2.686367   -0.237348
C     -1.095795    2.873815   -0.989288
N     -1.426577    4.049794   -1.573988
C     -0.580475    5.070078   -1.402129
N     -0.880323    6.247042   -1.968475
C     -0.006790    7.256149   -1.776580
C      1.142582    7.095905   -1.035158
N      1.462881    5.920334   -0.456919
C      0.609189    4.903381   -0.634408
N      0.908680    3.725789   -0.068023
C     -0.321261    0.239101    0.340449
C      0.114865   -0.943939    0.990546
C     -0.453206   -2.266502    1.084669
C     -1.636960   -2.834593    0.561911
H     -2.812234   -4.644542    0.452233
H     -1.209591   -5.936226    1.837075
H      2.280564    2.182865    1.261116
H     -1.817959    2.084486   -1.162726
H     -0.261057    8.202973   -2.240007
H      1.842988    7.909681   -0.882802
H     -1.256879    0.197162   -0.206418
H     -2.321743   -2.246732   -0.041585
