12

N     -0.867085    0.176679   -1.161259
C     -1.199474    0.871267   -0.000420
N     -0.176644    1.295388    0.763745
C     -0.519134    1.986003    1.877751
C     -1.834795    2.245315    2.222643
N     -2.872062    1.829659    1.465668
C     -2.521456    1.148154    0.346383
H      0.145102    0.072118   -1.163221
H     -1.337295   -0.719765   -1.210846
H      0.304437    2.329603    2.493115
H     -2.088780    2.798514    3.119354
H     -3.344371    0.827092   -0.282073
