43

C     -2.367392    3.404746   -4.024133
C     -2.664301    1.945863   -3.737112
O     -2.231460    1.656808   -2.404235
C     -2.404207    0.357407   -2.029902
O     -2.930375   -0.502547   -2.725534
C     -1.867389    0.140054   -0.702905
O     -1.563445    1.223542    0.077993
C     -1.104551    0.761141    1.267579
C     -0.689452    1.555591    2.333078
C     -0.247502    0.884453    3.477045
C     -0.230423   -0.511014    3.532462
C     -0.653710   -1.282369    2.440485
C     -1.102052   -0.626016    1.278001
C     -1.570276   -1.033902   -0.013150
C     -1.680168   -2.434014   -0.521348
S     -0.035534   -3.162305   -0.838845
C      0.509029   -2.121558   -2.113268
N      0.056843   -2.203881   -3.344458
N      0.513309   -1.092662   -3.991199
N      1.222507   -0.325847   -3.178961
N      1.299788   -0.984810   -1.987988
C      2.068545   -0.442828   -0.921024
C      2.451482   -1.201429    0.191060
C      3.190260   -0.614958    1.224228
C      3.562087    0.724961    1.152467
C      3.207818    1.482574    0.040704
C      2.471513    0.902806   -0.994898
H     -2.884957    4.051545   -3.307925
H     -1.296305    3.607738   -3.920211
H     -2.681799    3.675210   -5.035973
H     -2.123320    1.312353   -4.449229
H     -3.741224    1.763550   -3.823562
H     -0.708035    2.636724    2.270653
H      0.088715    1.460684    4.336533
H      0.119144   -1.007917    4.435140
H     -0.627231   -2.366518    2.498031
H     -2.176981   -3.054273    0.232842
H     -2.283911   -2.504603   -1.429452
H      2.230454   -2.258234    0.285941
H      3.481129   -1.210249    2.086639
H      4.133994    1.176058    1.959193
H      3.500708    2.527788   -0.021874
H      2.202292    1.529782   -1.843970
