38

C     -0.995141   -2.504042   -0.159755
C     -0.448590   -3.899915   -0.369151
C      0.872817   -3.895987   -0.625358
C      1.308588   -2.513811   -0.607651
N      2.569519   -2.130738   -0.824055
C      2.772393   -0.787428   -0.764013
C      1.795461    0.200456   -0.501268
C      2.080867    1.620167   -0.451591
Si     3.740490    2.526580   -0.706647
C      2.871527    4.169345   -0.416390
C      1.555585    4.038065   -0.170675
C      1.118116    2.647625   -0.188669
C     -0.154597    2.141322    0.020900
C     -1.302338    2.840356    0.295422
N     -2.314404    1.915233    0.423400
C     -1.823485    0.638801    0.233638
C     -0.476855    0.746513   -0.019780
C      0.462361   -0.296721   -0.279301
C      0.236879   -1.676604   -0.337661
C     -1.319576   -5.066444   -0.286418
N     -2.608732   -4.846117   -0.019884
C     -3.351645   -5.948614    0.042734
N     -2.922769   -7.195438   -0.132781
C     -1.620895   -7.284353   -0.392063
N     -0.769522   -6.266841   -0.482018
H     -1.401411   -2.388019    0.850028
H     -1.744662   -2.257148   -0.918332
H      1.525481   -4.731573   -0.813887
H      3.809566   -0.516815   -0.945306
H      4.243478    2.387186   -2.095381
H      4.720124    2.205439    0.360216
H      3.422770    5.096400   -0.454776
H      0.877386    4.857099    0.021584
H     -1.503421    3.896271    0.412604
H     -3.280029    2.138666    0.627369
H     -2.494646   -0.204608    0.301492
H     -4.406983   -5.818421    0.257217
H     -1.215621   -8.278919   -0.544336
