46

C      0.056579    3.658617   -1.467924
C      0.988030    2.699940   -0.807352
C      0.333136    1.569146   -0.489141
C      0.874781    0.354065    0.146706
C      2.276839    0.220353    0.358362
C      2.896016   -0.963459    0.794052
C      4.335984   -1.071103    1.007662
C      5.059567   -1.751016    1.974489
C      6.437393   -1.526284    1.741997
C      6.534552   -0.721365    0.632487
N      5.264595   -0.457726    0.191830
C      2.032738   -2.079790    0.957203
N      2.397033   -3.334990    1.278257
S      1.038255   -4.266868    1.235975
N     -0.089209   -3.130443    0.841559
C      0.528528   -1.939115    0.746439
C     -0.073676   -0.675510    0.432548
C     -1.529435   -0.455312    0.255089
C     -2.574174   -1.187070    0.865512
C     -2.534510   -2.064325    1.923589
O     -3.785478   -2.536439    2.208575
C     -4.654118   -1.927389    1.352674
C     -3.963697   -1.062033    0.547732
C     -4.474644   -0.196159   -0.399029
C     -5.863516   -0.060516   -0.821381
C     -6.025472    0.898118   -1.747677
Si    -4.422149    1.764146   -2.184517
C     -3.469189    0.669621   -0.945967
C     -2.068092    0.616348   -0.580758
C     -1.070987    1.677649   -0.909059
C     -1.231130    2.895807   -1.460090
H     -0.030347    4.584875   -0.892502
H      0.375919    3.886709   -2.488866
H      2.027192    2.929304   -0.634323
H      2.918669    1.078978    0.170730
H      4.635387   -2.349751    2.771340
H      7.265387   -1.916667    2.319307
H      7.395678   -0.321978    0.113886
H      5.042445    0.088380   -0.629169
H     -1.760589   -2.444580    2.573800
H     -5.693476   -2.195265    1.476108
H     -6.659482   -0.677278   -0.428426
H     -6.955130    1.182351   -2.216430
H     -4.020883    1.517497   -3.591771
H     -4.466929    3.193421   -1.783916
H     -2.130867    3.361082   -1.815940
