37

C     -1.858878   -1.008953    1.626482
C     -0.844327    0.016098    1.163168
N     -0.044088   -0.354982    0.210073
N      0.982996    0.444319   -0.190870
N      1.617162    1.326508    0.611915
N      2.661864    1.767307   -0.070044
N      2.745017    1.164809   -1.294959
C      1.700685    0.367075   -1.391502
N      1.411331   -0.468867   -2.424541
C      0.149348   -0.668653   -3.029111
C     -0.011527   -1.784410   -3.865224
C     -1.235904   -2.055110   -4.481674
C     -2.322297   -1.211902   -4.268993
C     -2.182624   -0.101183   -3.441242
C     -0.956021    0.166380   -2.824705
C     -0.936107    1.336330    1.823421
C     -1.367997    2.442487    1.090069
C     -1.490543    3.680312    1.725711
C     -1.152077    3.827952    3.075111
N     -1.390514    5.042029    3.730304
C     -0.787866    2.693855    3.809065
C     -0.661175    1.449780    3.186247
H     -2.398842   -1.400341    0.758769
H     -1.335198   -1.832688    2.120479
H     -2.584978   -0.579956    2.322223
H      2.151463   -0.551739   -3.116768
H      0.820511   -2.465077   -4.030522
H     -1.340098   -2.927254   -5.121691
H     -3.276215   -1.420357   -4.746170
H     -3.027939    0.561593   -3.275596
H     -0.879651    1.053183   -2.204073
H     -1.622122    2.349229    0.038631
H     -1.850710    4.533777    1.157101
H     -0.841164    5.162652    4.576020
H     -1.329780    5.852235    3.120898
H     -0.592832    2.773240    4.875458
H     -0.348896    0.585708    3.765811
