41

C      2.675077   -0.202791   -2.275414
O      2.969463    0.516628   -3.389562
C      2.118341    1.584097   -3.419661
C      1.271859    1.566888   -2.335123
C      1.645029    0.398695   -1.598651
C      1.064537   -0.050429   -0.403149
C      1.442333   -1.209276    0.317847
C      0.773481   -1.529597    1.491657
N     -0.226074   -0.737801    1.933380
C     -0.563002    0.370195    1.213408
C      0.022513    0.814907    0.016135
C     -0.381174    2.035738   -0.736257
C     -1.426541    2.847524   -0.257439
C     -1.863289    4.006856   -0.904649
C     -1.277403    4.439333   -2.089760
C     -1.752282    5.608676   -2.699237
C     -1.169979    6.035871   -3.874371
N     -0.162450    5.382634   -4.469295
C      0.276068    4.252537   -3.854519
C     -0.220828    3.699402   -2.656927
C      0.233848    2.484257   -1.974654
C      1.123587   -2.720455    2.280606
N      2.153068   -3.530758    1.820279
C      2.548848   -4.658244    2.486229
C      2.023326   -5.160191    3.667010
C      0.973366   -4.382997    4.187327
N      0.305842   -4.663286    5.318110
S     -0.824431   -3.465802    5.505482
N     -0.517942   -2.544824    4.167867
C      0.492937   -3.126407    3.494705
H      3.278869   -1.086419   -2.123514
H      2.278478    2.217682   -4.275980
H      2.246494   -1.844919   -0.038953
H     -1.379177    0.910723    1.683609
H     -1.955046    2.603288    0.660889
H     -2.680949    4.569305   -0.455228
H     -2.565598    6.184610   -2.269232
H     -1.508573    6.936258   -4.377788
H      1.085461    3.797709   -4.404696
H      3.368500   -5.187214    1.999705
H      2.382942   -6.060470    4.143805
