31

C      3.989135    0.434416   -0.972581
N      3.734400   -0.757559   -0.165494
C      4.853455   -1.212364    0.657976
C      2.427439   -1.022426    0.260338
C      2.141609   -1.975537    1.251945
C      0.830391   -2.257698    1.669930
C     -0.266642   -1.601332    1.105342
C     -1.641851   -1.893363    1.539642
C     -2.501398   -0.860349    1.959243
C     -3.807808   -1.132708    2.373076
C     -4.259301   -2.448757    2.366250
N     -5.556467   -2.723947    2.776122
C     -6.651849   -2.956133    3.122439
C     -3.437990   -3.494691    1.957277
C     -2.132721   -3.212846    1.546207
C     -0.003310   -0.660692    0.105871
C      1.311061   -0.386143   -0.307287
H      5.051011    0.521293   -1.229240
H      3.453880    0.389127   -1.927064
H      3.704476    1.344179   -0.432498
H      4.869817   -2.304653    0.736774
H      4.810659   -0.770577    1.659672
H      5.814665   -0.930299    0.213548
H      2.936430   -2.535652    1.734668
H      0.682988   -2.997641    2.453907
H     -2.147379    0.169204    1.976507
H     -4.458252   -0.325356    2.697599
H     -3.803704   -4.517660    1.953268
H     -1.496353   -4.032147    1.215253
H     -0.821828   -0.135897   -0.382532
H      1.427997    0.345693   -1.100531
