28

O     -0.930686    0.867398   -0.507798
C     -1.654874   -0.124574   -0.490982
C     -2.504500   -0.478026   -1.702179
S     -1.986357   -2.042383   -2.458328
C     -0.297395   -1.702932   -2.625751
N      0.568310   -2.156772   -1.785442
C      1.913304   -1.714978   -2.210419
C      1.803280   -0.454814   -3.056992
S      0.251186   -0.707847   -3.937854
N     -1.819700   -1.002121    0.563129
C     -1.202426   -0.955621    1.831166
C     -0.368822    0.074588    2.266587
C      0.195864    0.030237    3.547840
C     -0.068706   -1.040377    4.403029
C     -0.902029   -2.071965    3.979670
C     -1.459207   -2.020441    2.705115
F     -2.267098   -3.018309    2.310319
H     -2.436283    0.330517   -2.437025
H     -3.552070   -0.554217   -1.393252
H      2.531319   -1.520208   -1.327420
H      2.393844   -2.526659   -2.770922
H      1.712946    0.433657   -2.424139
H      2.651696   -0.331751   -3.734643
H     -2.364012   -1.842993    0.386478
H     -0.137053    0.927211    1.636275
H      0.846147    0.838550    3.875480
H      0.374395   -1.067648    5.395311
H     -1.121133   -2.912887    4.629342
