32

F      0.254098   -6.764461   -1.441639
C      0.186384   -5.510319   -0.977328
C     -0.276230   -5.281544    0.312234
C     -0.348579   -3.972903    0.801257
C      0.578970   -4.455981   -1.789826
C      0.507180   -3.148143   -1.302480
C      0.042663   -2.887246   -0.000577
C     -0.027048   -1.511463    0.496543
N      0.340244   -0.455860   -0.248118
N      0.121014    0.601210    0.577173
C      0.383944    1.937047    0.175007
C      0.144160    2.998122    1.056186
C      0.406278    4.309764    0.650706
C      0.906231    4.578396   -0.626661
O      1.116245    5.903935   -0.889572
C      1.624725    6.232026   -2.176350
C      1.144776    3.519485   -1.504030
C      0.885296    2.201776   -1.106976
N     -0.364715    0.300051    1.809113
C     -0.455522   -1.028814    1.752175
H     -0.577842   -6.122169    0.929537
H     -0.714594   -3.826038    1.813835
H      0.937893   -4.653394   -2.794838
H      0.818133   -2.329580   -1.949777
H     -0.244659    2.823671    2.057387
H      0.218731    5.131597    1.338099
H      0.926524    5.932440   -2.964917
H      1.734600    7.319686   -2.224956
H      2.614093    5.790142   -2.334342
H      1.532259    3.681603   -2.504437
H      1.079760    1.393634   -1.809772
H     -0.822619   -1.570217    2.612399
