35

C     -4.093262   -2.228587   -2.559851
O     -2.739243   -2.168355   -2.129719
C     -2.509506   -1.676244   -0.874222
C     -3.479258   -1.198945    0.008817
C     -3.107082   -0.724040    1.269671
C     -1.765155   -0.731186    1.652892
O     -1.454716   -0.244418    2.897110
C     -1.405359   -1.317039    3.840630
C     -0.776936   -1.167037    0.762421
C      0.638056   -1.128803    1.088354
N      1.363827   -2.305156    1.171501
C      2.617566   -2.037118    1.459973
C      3.678640   -3.065455    1.630937
S      2.996443   -0.373319    1.638036
C      1.363534    0.036141    1.284921
C      0.941717    1.472603    1.235490
C      0.357997    1.843824   -0.104143
O     -0.623174    2.550602   -0.281404
O      1.061013    1.397374   -1.164194
C     -1.164350   -1.659527   -0.491437
H     -4.532949   -1.227506   -2.618602
H     -4.685150   -2.883981   -1.912370
H     -4.105298   -2.656667   -3.566850
H     -4.532141   -1.179859   -0.251595
H     -3.863836   -0.348301    1.952905
H     -2.379050   -1.812194    3.925420
H     -1.156983   -0.890412    4.817013
H     -0.629599   -2.045996    3.583769
H      4.483753   -2.919113    0.903962
H      4.102263   -3.023891    2.639387
H      3.266921   -4.068482    1.479741
H      1.776837    2.154691    1.430540
H      0.185625    1.658796    2.005182
H      0.550615    1.713708   -1.938550
H     -0.408571   -2.026450   -1.183553
