39

C      0.893353   -3.697499   -6.165959
C      0.735338   -3.073183   -4.922403
C      1.276173   -1.776553   -5.076837
C      1.496512   -0.620996   -4.390301
S      2.273872    0.476476   -5.527681
C      2.262986   -0.646120   -6.834594
C      1.692854   -1.776152   -6.388843
O      1.496651   -2.905903   -7.120555
C      1.213093   -0.206754   -3.002652
C      0.601441   -1.060195   -2.095027
N      0.305673   -0.758463   -0.802920
C      0.616427    0.465653   -0.319820
C      1.238795    1.404463   -1.159191
C      1.553617    2.664791   -0.645598
N      1.306430    3.068980    0.615906
C      0.708000    2.169884    1.427291
C      0.455124    2.612535    2.752672
O      0.742756    3.838438    3.310811
C      0.316352    3.802035    4.610704
C     -0.246793    2.581058    4.926383
C     -0.143257    1.862678    3.742128
C     -0.528840    0.551862    3.391169
C     -1.131719   -0.409190    4.142502
N     -1.266169   -1.481735    3.284869
C     -0.750954   -1.167332    2.037329
C     -0.272663    0.125101    2.074358
C      0.341630    0.857608    1.014059
C      1.530367    1.056140   -2.493827
H      0.630112   -4.686542   -6.518433
H      0.285453   -3.534159   -4.056111
H      2.655556   -0.434657   -7.818502
H      0.305246   -2.067119   -2.364492
H      2.035841    3.418851   -1.264103
H      0.484014    4.712271    5.169743
H     -0.660995    2.285745    5.878512
H     -1.474166   -0.454775    5.166776
H     -1.680809   -2.372371    3.527329
H     -0.778697   -1.903838    1.245014
H      2.012413    1.801187   -3.122540
