32

C      3.634332   -5.653469   -0.023971
O      3.835374   -4.576137   -0.930433
C      2.967521   -3.523935   -0.840687
C      1.906192   -3.407624    0.053684
C      1.092181   -2.267013    0.034842
C      3.204512   -2.491685   -1.749770
C      2.392550   -1.351492   -1.770201
C      1.322510   -1.223905   -0.875404
C      0.461486   -0.040059   -0.880128
N     -0.570374    0.106686   -0.032888
N     -1.085291    1.317456   -0.372829
C     -2.212719    1.869523    0.290214
C     -2.832324    1.163210    1.331608
C     -3.941074    1.709844    1.981162
C     -4.433290    2.956829    1.596138
C     -3.820066    3.662505    0.561028
C     -2.710876    3.123113   -0.093792
N     -0.454296    1.966313   -1.386166
C      0.516347    1.107840   -1.700095
H      3.752765   -5.323780    1.013510
H      2.658372   -6.124581   -0.180962
H      4.403110   -6.406142   -0.223728
H      1.679344   -4.180922    0.779892
H      0.269157   -2.201592    0.745002
H      4.031577   -2.575414   -2.451354
H      2.620397   -0.577655   -2.497656
H     -2.463390    0.189160    1.646609
H     -4.421003    1.161982    2.788303
H     -5.296688    3.379693    2.103834
H     -4.205652    4.634310    0.262793
H     -2.246433    3.689183   -0.898958
H      1.203884    1.355426   -2.496208
