38

C      0.599965   -2.008621   -6.419247
C      1.375710   -0.879996   -6.546820
S      1.588499   -0.077239   -5.054040
C      0.633867   -1.232891   -4.210880
C      0.175226   -2.212418   -5.074049
C      0.420761   -1.094181   -2.770361
C      0.050894    0.113921   -2.145949
C     -0.180412    0.336098   -0.740832
C     -0.546315    1.636238   -0.247732
C     -0.688362    2.773671   -1.100302
C     -1.045511    4.043254   -0.647643
C     -1.277872    4.234371    0.692751
C     -1.147053    3.153637    1.561744
C     -0.782867    1.840289    1.141101
C     -0.653092    0.752632    2.068311
C     -0.880398    0.917027    3.467437
C     -0.760977   -0.115096    4.394509
C     -0.405097   -1.365818    3.952878
C     -0.175244   -1.564925    2.591965
C     -0.286367   -0.539435    1.606637
C     -0.049499   -0.748451    0.190886
C      0.328493   -2.031479   -0.410880
N      0.516856   -3.202543    0.227898
S      0.939485   -4.346620   -0.876177
N      0.902552   -3.445061   -2.252346
C      0.560566   -2.191762   -1.899329
H      0.351816   -2.660724   -7.247571
H      1.833003   -0.488634   -7.445139
H     -0.439254   -3.046320   -4.754665
H     -0.077212    0.944116   -2.837625
H     -0.518745    2.709869   -2.170578
H     -1.137297    4.869231   -1.347486
H     -1.557511    5.213102    1.072113
H     -1.343319    3.378432    2.605633
H     -1.163458    1.878158    3.885192
H     -0.945850    0.067926    5.448948
H     -0.302549   -2.192299    4.650380
H      0.101625   -2.578744    2.325479
