48

C      6.617145   -1.598187    1.224985
C      6.663758   -0.256561    1.527531
N      5.510553    0.320529    1.064293
C      4.725016   -0.629599    0.450658
C      5.392887   -1.836096    0.554384
C      3.418578   -0.309768   -0.128492
C      2.289573   -0.760564    0.562933
C      0.998220   -0.473569    0.118724
C     -0.102198   -0.945389    0.855819
C     -1.420407   -0.683303    0.461966
C     -2.511590   -1.156580    1.202027
C     -3.828372   -0.874198    0.777609
C     -5.034802   -1.271773    1.401810
C     -5.190355   -2.013554    2.547803
N     -6.546728   -2.147893    2.766289
C     -7.257399   -1.502212    1.776231
C     -6.337435   -0.953316    0.921404
C     -6.625112   -0.215371   -0.215428
C     -5.428956    0.192869   -0.856186
C     -4.086994   -0.109354   -0.401110
C     -2.968243    0.346235   -1.114521
C     -1.645923    0.071768   -0.701946
C     -0.536505    0.538901   -1.433514
C      0.810498    0.287493   -1.056524
C      1.964637    0.750362   -1.789107
C      1.869650    1.514687   -2.982014
C      2.990721    1.946949   -3.694018
C      4.255633    1.624431   -3.240507
C      4.392221    0.879080   -2.072298
C      3.272894    0.438848   -1.321244
H      7.379450   -2.328498    1.463488
H      7.413380    0.335524    2.034956
H      5.264937    1.298172    1.151769
H      5.035541   -2.786368    0.178175
H      2.431587   -1.339656    1.474921
H      0.071137   -1.530613    1.758091
H     -2.352430   -1.741538    2.103144
H     -4.480705   -2.459909    3.230116
H     -6.960208   -2.648759    3.541905
H     -8.338728   -1.501018    1.783219
H     -7.611769    0.027116   -0.581689
H     -5.538909    0.783558   -1.767758
H     -3.124843    0.932329   -2.019027
H     -0.745055    1.118008   -2.329004
H      0.902772    1.791053   -3.392552
H      2.866758    2.526492   -4.604924
H      5.136262    1.942350   -3.791578
H      5.402755    0.626065   -1.755881
