29

C      0.853600    3.717422   -3.455932
C      0.398434    2.390715   -2.868535
C      0.428661    2.418782   -1.337935
C     -0.016853    1.104033   -0.735671
C      0.903970    0.110208   -0.413759
C      2.383693    0.279784   -0.611525
N      0.537438   -1.080840    0.113322
C     -0.759225   -1.370079    0.346598
C     -1.130950   -2.608895    0.892501
Br     0.188639   -3.918352    1.322208
C     -2.463036   -2.949364    1.147824
C     -3.466070   -2.041116    0.856557
C     -3.126873   -0.804039    0.314416
C     -1.776157   -0.445065    0.050541
C     -1.370629    0.800459   -0.500013
Cl    -2.586378    1.989924   -0.898572
H      0.202242    4.534533   -3.129800
H      0.826288    3.677054   -4.549338
H      1.878511    3.950734   -3.150284
H     -0.612628    2.169633   -3.229393
H      1.046914    1.591316   -3.246036
H      1.439139    2.669686   -0.994336
H     -0.188971    3.240905   -0.957389
H      2.611499    0.524514   -1.652956
H      2.768305    1.066059    0.045064
H      2.916214   -0.645999   -0.367649
H     -2.718473   -3.917305    1.571245
H     -4.506944   -2.289343    1.048451
H     -3.938724   -0.112087    0.097056
