51

C     -4.995399   -0.520024    3.129350
C     -4.561709   -1.759907    2.867655
C     -3.197342   -2.092147    2.431722
C     -2.634325   -3.294192    2.859253
C     -1.339897   -3.660151    2.474255
C     -0.595083   -2.821640    1.618276
C      0.725803   -2.899058    1.089196
C      1.768350   -3.840578    1.226767
C      2.973181   -3.655248    0.539354
C      3.155635   -2.555720   -0.297349
C      4.418543   -2.426165   -1.040400
C      5.218531   -1.351285   -1.149452
C      5.002913   -0.097208   -0.511995
C      4.881375    1.146961   -1.107305
C      4.703787    2.201375   -0.165078
C      4.717351    1.737949    1.129699
S      4.956542    0.048006    1.203805
C      2.115873   -1.629754   -0.464584
C      0.922762   -1.783902    0.274706
N     -0.239679   -1.011952    0.325439
C     -0.426171    0.236801   -0.340252
C     -1.625318    0.512653   -1.003109
C     -1.793239    1.738595   -1.653041
C     -0.777207    2.697883   -1.647850
O     -1.076369    3.850206   -2.320707
C     -0.074856    4.859200   -2.344000
C      0.418216    2.421215   -0.984630
C      0.595370    1.194786   -0.333565
C     -1.178900   -1.645421    1.143343
C     -2.471461   -1.258211    1.565937
H     -4.355783    0.352503    3.045071
H     -6.016787   -0.354142    3.457512
H     -5.241175   -2.599134    2.998812
H     -3.187174   -3.956200    3.522284
H     -0.908974   -4.586664    2.843182
H      1.638866   -4.710922    1.863800
H      3.767133   -4.387687    0.666584
H      4.713955   -3.332982   -1.566199
H      6.095425   -1.425226   -1.788524
H      4.908081    1.291745   -2.180843
H      4.580270    3.245280   -0.424625
H      4.610342    2.309614    2.041228
H      2.233372   -0.805752   -1.161755
H     -2.422766   -0.223519   -1.065426
H     -2.723596    1.945182   -2.177154
H      0.830196    4.505774   -2.849089
H      0.149463    5.216216   -1.333394
H     -0.466291    5.705614   -2.916533
H      1.231876    3.137523   -0.946243
H      1.524328    1.023624    0.206804
H     -2.901909   -0.319028    1.233803
