47

Si    -1.564877   -4.219630   -1.350232
C      0.279459   -4.099006   -1.519801
C      0.753667   -2.995022   -0.912556
C      2.105886   -2.580367   -0.841106
C      2.482574   -1.413186   -0.183422
N      3.852875   -1.277772   -0.287951
C      4.338683   -2.347509   -1.001133
C      5.519616   -2.924859   -1.510379
C      5.057022   -4.061451   -2.136762
O      3.703184   -4.211777   -2.045465
C      3.290041   -3.130797   -1.334129
C      1.519698   -0.535713    0.477474
C      1.769369    0.652749    1.171868
C      2.952696    1.299127    1.425852
O      2.726485    2.431401    2.159113
C      1.383503    2.514556    2.381719
C      0.750578    1.451978    1.789392
C     -0.618372    1.172131    1.792132
C     -0.885009   -0.039613    1.099722
C      0.112791   -0.868168    0.462654
C     -0.275186   -2.134031   -0.254310
C     -1.532290   -2.614668   -0.380683
C     -1.628628    1.982379    2.430346
C     -2.382938    1.581595    3.566021
C     -3.393377    2.389160    4.200852
C     -3.766183    3.681403    3.767002
C     -3.027636    4.050082    2.651176
C     -3.143697    5.231729    1.966397
N     -2.242272    5.179719    0.923828
C     -1.558871    3.981191    0.940805
C     -2.022476    3.260330    2.015220
H     -2.276679   -4.073316   -2.642817
H     -1.996393   -5.364829   -0.512829
H      0.856103   -4.842747   -2.047772
H      4.446322   -0.545524    0.073389
H      6.540717   -2.582448   -1.440645
H      5.556321   -4.850890   -2.682507
H      3.992018    1.130846    1.196610
H      1.057183    3.367488    2.960886
H     -1.929283   -0.346093    1.047963
H     -2.454253   -2.200898   -0.009441
H     -2.183947    0.599697    3.998947
H     -3.900972    1.972869    5.071786
H     -4.527035    4.278269    4.248113
H     -3.775185    6.098047    2.107986
H     -2.106011    5.912019    0.239209
H     -0.815181    3.764350    0.185687
