30

C      4.535714   -2.052318    2.121067
C      3.307847   -1.737379    2.653202
C      2.494460   -1.328926    1.564332
C      1.176509   -0.890309    1.410031
C      0.714737   -0.564860    0.117215
C      1.506579   -0.652172   -1.061116
C      2.837979   -1.100347   -0.868501
C      3.742801   -1.240075   -1.926477
C      3.349414   -0.935733   -3.223222
C      2.060465   -0.487037   -3.516574
C      1.794515   -0.211091   -4.899347
C      0.574196    0.246712   -5.415139
C     -0.365206    0.404713   -4.410521
C     -1.629699    0.847092   -4.714601
S     -2.597514    0.958929   -3.312537
C     -1.310727    0.412225   -2.307347
C     -0.150940    0.141046   -2.998264
C      1.100502   -0.333027   -2.435849
C      3.287144   -1.422584    0.429935
O      4.534939   -1.865658    0.776447
H      5.466716   -2.405421    2.542059
H      3.032097   -1.794716    3.696252
H      0.513588   -0.799032    2.265591
H     -0.312061   -0.233924    0.075271
H      4.759101   -1.586415   -1.749002
H      4.087782   -1.059733   -4.014509
H      2.595776   -0.363878   -5.626463
H      0.417846    0.442133   -6.467481
H     -2.041914    1.111328   -5.678948
H     -1.546580    0.341972   -1.263216
