22

O     -1.823843   -0.781844    3.479597
C     -1.417946   -0.303792    2.426418
C     -1.429269   -1.098604    1.188531
C     -0.998765   -0.634193    0.006325
C     -1.031983   -1.484791   -1.228612
C     -0.486875    0.741174   -0.056181
C     -0.029215    1.346936   -1.230391
C      0.446231    2.666474   -1.216455
C      0.514640    3.396427   -0.027311
N      0.875775    4.747058   -0.048891
C      0.005215    2.820245    1.134266
C     -0.465828    1.504753    1.111199
O     -0.931180    0.987924    2.336419
H     -1.818754   -2.103866    1.303481
H     -0.024717   -1.615444   -1.638297
H     -1.429910   -2.484970   -1.023472
H     -1.671076   -1.033386   -1.994926
H     -0.042983    0.819531   -2.180260
H      0.764120    3.119911   -2.152350
H      1.508133    4.997066   -0.802670
H      1.184933    5.107863    0.848779
H     -0.028949    3.383068    2.062332
