45

Si    -3.177564    1.587766    1.502599
C     -2.105343    1.333643    0.009881
C     -1.235217    0.313300    0.177424
C     -0.179973   -0.041251   -0.790411
C     -0.076075    0.595423   -2.039003
C      0.958613    0.256163   -2.895396
N      1.878502   -0.672180   -2.579599
C      1.747978   -1.282998   -1.375353
C      0.752979   -1.030861   -0.421796
C      0.643623   -1.782324    0.875333
C      1.590316   -2.792649    1.194759
C      1.479988   -3.600477    2.323870
C      0.393983   -3.432752    3.157953
C      0.162369   -4.294628    4.330526
C     -0.971201   -4.020314    4.993011
Si    -1.910312   -2.609111    4.226918
C     -0.568902   -2.414547    2.899881
C     -0.436052   -1.542808    1.792867
C     -1.342447   -0.394801    1.478376
C     -2.249406    0.177648    2.301059
C      1.124648    0.906102   -4.194237
S      1.276679   -0.072095   -5.622337
C      1.377481    1.292331   -6.672559
C      1.300699    2.434234   -5.937984
Si     1.345346    4.280113   -6.299932
C      1.173142    4.589086   -4.419501
C      1.102763    3.428054   -3.731714
C      1.162951    2.240078   -4.535618
H     -2.924156    2.884558    2.174327
H     -4.600618    1.257763    1.251741
H     -2.199910    2.007389   -0.824828
H     -0.792929    1.343328   -2.355689
H      2.523612   -2.025393   -1.222598
H      2.445731   -2.994500    0.557416
H      2.223227   -4.368759    2.516353
H      0.857152   -5.077351    4.605609
H     -1.335035   -4.528666    5.872441
H     -1.987954   -1.452278    5.155885
H     -3.216329   -3.045498    3.672282
H     -2.493903   -0.039972    3.321292
H      1.489610    1.158173   -7.739774
H      0.152897    4.783129   -7.026457
H      2.651553    4.773679   -6.801909
H      1.157392    5.591603   -4.023437
H      1.024144    3.390980   -2.651143
