36

C      3.647241    2.252771    3.864458
C      2.513895    1.259769    4.054996
O      2.681132    0.127213    3.203652
C      2.169981    0.165884    1.937407
C      1.542536    1.254837    1.329485
C      1.066743    1.150908    0.018074
C      1.218299   -0.048709   -0.682307
S      0.607871   -0.165687   -2.343148
O      1.035856   -1.420799   -2.918778
O      0.859118    1.100669   -2.993428
N     -1.041306   -0.249144   -2.088559
C     -1.628846   -1.545737   -1.779110
C     -2.962572   -1.373039   -1.101418
C     -3.029943   -0.912674    0.217933
C     -4.275581   -0.750996    0.802431
N     -5.439671   -1.009683    0.170310
C     -5.354497   -1.446703   -1.103879
C     -4.157137   -1.639235   -1.775685
C      1.857637   -1.138485   -0.092419
C      2.327412   -1.024649    1.217443
H      3.556392    3.082673    4.571081
H      3.657128    2.660095    2.849194
H      4.614771    1.763628    4.018953
H      2.556490    0.881711    5.082895
H      1.527261    1.723529    3.948120
H      1.416185    2.203687    1.839789
H      0.584425    2.006169   -0.450868
H     -1.581389    0.408823   -2.646903
H     -0.979999   -2.132435   -1.119197
H     -1.752076   -2.114036   -2.708153
H     -2.130754   -0.679438    0.779641
H     -4.372550   -0.396801    1.824753
H     -6.306450   -1.644014   -1.588910
H     -4.165047   -1.989752   -2.802513
H      1.996860   -2.070278   -0.635300
H      2.827003   -1.871008    1.684606
