38

C      1.777152    3.817303    0.727769
C      1.129448    2.787884    1.575740
N      0.475110    3.150729    2.728988
C      0.044023    2.027346    3.256291
C     -0.679266    1.779037    4.457180
C     -0.967925    0.513778    4.816660
C     -0.549298   -0.617993    4.006614
C      0.119605   -0.390030    2.863599
N      0.398317    0.926292    2.479605
C      1.043411    1.419665    1.360907
C      1.562768    0.665195    0.246735
O      2.695093    0.851162   -0.180947
N      0.638164   -0.211702   -0.293109
C      0.827135   -1.126016   -1.350273
C      2.057001   -1.362666   -1.970326
C      2.160712   -2.290809   -3.013127
C      1.035890   -2.987563   -3.441728
C     -0.190032   -2.781193   -2.807187
C     -0.297058   -1.846050   -1.776759
O     -1.335830   -3.455142   -3.147329
C     -1.046589   -4.599152   -3.960398
C     -0.049357   -4.246280   -5.051745
O      1.207368   -3.863437   -4.481682
H      1.550754    4.823631    1.093801
H      1.423473    3.745697   -0.305448
H      2.863864    3.689088    0.735220
H     -0.978819    2.626347    5.063481
H     -1.514417    0.310114    5.732858
H     -0.776717   -1.622026    4.349646
H      0.472077   -1.194471    2.230493
H     -0.307047   -0.139342    0.061638
H      2.961015   -0.841655   -1.669864
H      3.120743   -2.457833   -3.494337
H     -1.267737   -1.696846   -1.312372
H     -0.666481   -5.398889   -3.312682
H     -1.988570   -4.937409   -4.403272
H     -0.413916   -3.422839   -5.678407
H      0.128871   -5.112666   -5.696336
