39

C      4.623898    0.760559    0.067913
C      6.056866    0.866075    0.600154
C      6.070572    1.124092    1.927583
C      4.737363    1.216660    2.396048
C      4.140887    1.460460    3.593580
S      2.427004    1.431326    3.391532
C      2.525669    1.095750    1.689804
C      3.845361    1.003418    1.318547
C      1.357000    0.928177    0.861448
C      1.202643    0.016641   -0.165803
C     -0.062179    0.163156   -0.758062
C     -0.565991   -0.607921   -1.839772
C      0.021853   -1.622216   -2.526807
O     -0.869246   -2.038009   -3.476817
C     -1.996538   -1.262840   -3.349834
C     -1.857371   -0.343607   -2.330380
C     -2.763630    0.625834   -1.874716
C     -4.068459    0.906189   -2.357048
S     -4.967284    0.167465   -3.641890
C     -6.320386    1.166703   -3.417321
C     -6.128119    2.057731   -2.393349
C     -4.840007    1.924985   -1.770403
C     -4.294570    2.663565   -0.694118
C     -3.012606    2.399126   -0.209430
C     -2.229571    1.390149   -0.779586
C     -0.902874    1.141715   -0.252826
S     -0.041224    1.914844    1.043554
H      4.440617   -0.236353   -0.341881
H      4.432101    1.528271   -0.686800
H      6.932715    0.747182   -0.020285
H      6.952143    1.245771    2.541049
H      4.584588    1.653762    4.559754
H      1.957172   -0.706379   -0.446400
H      0.966916   -2.144207   -2.500219
H     -2.770831   -1.512054   -4.059426
H     -7.194730    1.057043   -4.044171
H     -6.875397    2.782060   -2.092910
H     -4.883005    3.453960   -0.232352
H     -2.649717    3.001199    0.620353
