49

C      5.188950   -0.182887   -4.271456
C      3.818401   -0.363705   -4.146191
C      3.219325   -0.295917   -2.886280
C      3.973927   -0.043753   -1.715269
C      3.403850    0.034938   -0.410971
C      4.237692    0.280401    0.695791
C      5.608584    0.452108    0.535642
C      6.170419    0.380607   -0.735458
C      5.373541    0.134732   -1.862989
C      5.960651    0.063916   -3.137333
C      1.966384   -0.129058   -0.171552
C      1.073495    0.915206   -0.312493
N     -0.264234    0.812927   -0.102917
C     -0.831384   -0.359355    0.274116
C      0.031123   -1.458150    0.436149
C     -0.511928   -2.659216    0.816476
N     -1.816904   -2.832474    1.039804
C     -2.680595   -1.804855    0.896307
C     -4.025863   -2.081241    1.151337
N     -4.376861   -3.343310    1.521583
C     -5.658588   -3.655142    1.776903
C     -6.675884   -2.745396    1.684200
C     -6.339093   -1.451919    1.307881
C     -4.998372   -1.068998    1.026299
C     -4.615238    0.250283    0.636977
C     -5.569311    1.299332    0.499837
C     -5.227890    2.594032    0.122543
C     -3.909019    2.884610   -0.132246
C     -2.950999    1.877202   -0.006277
C     -3.247033    0.536095    0.376574
C     -2.246793   -0.513334    0.507356
C      1.416226   -1.343597    0.216594
H      5.659472   -0.234951   -5.249690
H      3.210590   -0.558765   -5.026030
H      2.142944   -0.447030   -2.830825
H      3.812942    0.342280    1.696637
H      6.239179    0.642753    1.400174
H      7.244829    0.518291   -0.840379
H      7.033515    0.200840   -3.257051
H      1.409822    1.905500   -0.611119
H      0.092270   -3.550564    0.960236
H     -5.838516   -4.686080    2.064687
H     -7.700715   -3.025193    1.896141
H     -7.158766   -0.743983    1.239612
H     -6.625601    1.130442    0.687636
H     -5.991033    3.361404    0.031189
H     -3.609156    3.885921   -0.428869
H     -1.935630    2.189911   -0.225034
H      2.066671   -2.207413    0.344320
