42

Si    -0.999567    0.550164    3.946430
C     -0.118384   -1.093335    3.863071
C      0.322712   -1.355050    2.614414
C      1.053291   -2.557989    2.190124
C      1.453974   -2.606012    0.898495
C      1.182106   -1.544502   -0.067925
C      0.493297   -0.420743    0.239221
C      0.317977    0.552673   -0.789712
S     -0.696000    0.250763   -2.183185
C     -0.421928    1.817352   -2.885118
C     -1.010501    2.253549   -4.139269
N     -1.711413    1.350843   -4.831796
C     -2.226423    1.808975   -5.968609
N     -2.099984    3.044864   -6.443942
C     -1.381770    3.849996   -5.665583
N     -0.815454    3.519394   -4.509912
C      0.401383    2.492042   -2.056216
O      0.885307    3.758940   -2.203962
C      1.648735    3.862049   -1.056983
C      1.631919    2.717893   -0.252543
C      0.797573    1.811867   -0.929013
C      0.031814   -0.280680    1.625622
C     -0.653940    0.768117    2.126814
C      1.360912   -3.687522    3.001241
C      2.525142   -4.370214    3.300006
C      2.188683   -5.441070    4.163886
C      0.827637   -5.394170    4.362842
N      0.333421   -4.332678    3.649684
H     -0.278497    1.539432    4.782423
H     -2.445226    0.394132    4.235679
H      0.002590   -1.702086    4.744736
H      1.991365   -3.468307    0.510028
H      1.575662   -1.710410   -1.068288
H     -2.803480    1.109388   -6.563779
H     -1.245443    4.871272   -6.004643
H      2.149852    4.815352   -0.950451
H      2.158284    2.584776    0.681837
H     -0.978300    1.652920    1.602416
H      3.513895   -4.117519    2.939261
H      2.866718   -6.168493    4.590979
H      0.168531   -6.024144    4.944698
H     -0.640355   -4.063110    3.598143
