32

C      2.237554   -1.162953    2.027667
C      3.588208   -1.288885    1.340981
C      3.539647   -1.035755    0.022023
C      2.165824   -0.725093   -0.266200
C      1.346342   -0.782287    0.872441
C     -0.038581   -0.530084    0.911070
N     -0.614573   -0.644241    2.111077
C     -1.940413   -0.415014    2.214385
C     -2.782251   -0.063494    1.166613
C     -4.154115    0.150225    1.400187
C     -5.006715    0.502208    0.360544
C     -4.492369    0.642410   -0.918068
C     -3.128140    0.430173   -1.151831
C     -2.222708    0.070108   -0.122063
C     -0.796866   -0.169529   -0.270145
C      0.068879   -0.116541   -1.432772
C     -0.223064    0.180891   -2.744516
N      0.945737    0.098174   -3.480523
C      1.996598   -0.249028   -2.667904
C      1.481480   -0.385880   -1.406883
H      2.263718   -0.376121    2.787142
H      1.937159   -2.119786    2.464496
H      4.487205   -1.556645    1.878235
H      4.346894   -1.055247   -0.689716
H     -2.324980   -0.530052    3.225590
H     -4.566813    0.042277    2.401436
H     -6.064206    0.665446    0.548687
H     -5.146240    0.917276   -1.741925
H     -2.791559    0.555645   -2.170874
H     -1.126331    0.446787   -3.267118
H      1.013991    0.269508   -4.475520
H      2.996013   -0.362706   -3.065042
