33

Si     5.553783    1.556737    1.106357
C      3.781318    2.138190    1.469748
C      2.860594    1.349892    0.871857
C      3.384049    0.254870    0.098320
C      4.810273    0.165532    0.078984
C      5.326697   -0.860339   -0.644859
S      4.043891   -1.762388   -1.336244
C      2.791624   -0.750883   -0.645933
C      1.401261   -1.069094   -0.919126
C      0.888699   -2.132547   -1.701827
C     -0.506975   -1.988354   -1.641497
O     -1.678902   -2.541111   -2.076254
C     -2.645745   -1.744654   -1.531943
C     -4.018602   -1.525253   -1.415786
N     -5.069976   -2.195476   -1.930993
C     -6.261318   -1.654290   -1.577104
C     -6.442199   -0.527589   -0.770392
C     -5.333508    0.148123   -0.249527
C     -4.098581   -0.385764   -0.596762
O     -2.855661    0.092441   -0.214022
C     -2.054590   -0.787830   -0.824356
C     -0.755627   -0.926882   -0.884196
N      0.334511   -0.322370   -0.414347
H      6.295115    2.567161    0.311926
H      6.230639    1.100029    2.345287
H      3.599556    3.002902    2.087862
H      1.806949    1.552873    0.984997
H      6.357511   -1.140482   -0.814411
H      1.448786   -2.890483   -2.230564
H     -7.126938   -2.177049   -1.980256
H     -7.446786   -0.178525   -0.549336
H     -5.423897    1.024188    0.379287
H      0.338924    0.496081    0.175658
