45

C     -6.344497   -3.157664    2.781710
O     -5.264386   -2.796230    3.539147
C     -4.412659   -2.088772    2.734399
C     -4.927696   -2.007778    1.464296
C     -4.393491   -1.372779    0.336074
C     -5.297320   -1.503782   -0.756442
C     -6.562012   -2.195674   -0.701810
C     -7.070339   -2.834015    0.450901
C     -6.182499   -2.688366    1.506282
C     -3.113048   -0.696799    0.281925
C     -1.894931   -1.272808    0.665703
N     -0.644744   -0.707576    0.646085
C     -0.452881    0.566050    0.175513
C      0.894774    1.097077    0.174393
C      1.708043    1.119252    1.329051
C      3.024771    1.635964    1.353022
C      3.680066    2.179226    0.222482
C      5.044618    2.709092    0.276979
C      5.377226    3.977588   -0.215406
C      6.686225    4.449543   -0.127283
C      7.639114    3.637446    0.461458
N      7.372443    2.411352    0.955136
C      6.091576    1.980181    0.845758
C      2.917592    2.156969   -0.986132
N      3.319374    2.587303   -2.196333
S      2.076884    2.309651   -3.252239
N      0.961508    1.624106   -2.242126
C      1.503801    1.599071   -1.010792
C     -1.601678    1.299586   -0.224632
N     -1.658449    2.581057   -0.633228
S     -3.241687    2.903637   -0.988866
N     -3.944887    1.457627   -0.596139
C     -2.961813    0.638657   -0.176949
H     -7.109117   -3.720116    3.298548
H     -3.519070   -1.727435    3.223472
H     -5.025540   -1.051857   -1.713310
H     -7.162603   -2.221837   -1.612559
H     -8.021272   -3.345919    0.482732
H     -1.881413   -2.303662    1.024659
H      1.298810    0.720939    2.260139
H      3.550633    1.619522    2.310037
H      4.618926    4.609349   -0.673040
H      6.952565    5.428014   -0.510640
H      8.671907    3.960767    0.553386
H      5.928580    0.980996    1.243329
