47

C      3.133085    3.906005    3.217998
C      2.880925    5.119842    2.380453
C      2.217649    4.754821    1.276458
C      1.669213    5.588567    0.251232
C      0.913465    4.996645   -0.688946
C      0.667498    3.531552   -0.753966
C      1.296888    2.671953    0.119452
C      1.196459    1.176607   -0.103648
C      2.098747    0.291658    0.473239
N      2.080306   -1.053957    0.391845
C      1.090215   -1.584242   -0.366782
C      0.898743   -2.984679   -0.542989
C     -0.144291   -3.289780   -1.389939
S     -0.882582   -1.855483   -1.954963
C      0.170654   -0.808586   -1.078369
C      0.245575    0.603120   -0.982464
C     -0.538087    1.526123   -1.815756
C     -1.487475    1.331514   -2.748211
C     -1.902680    2.636666   -3.351572
C     -1.042519    3.609620   -2.613032
C     -0.262249    2.960482   -1.730312
C     -0.600480   -4.611190   -1.771589
S     -1.315615   -4.919367   -3.319729
C     -1.533159   -6.586766   -3.002053
C     -1.074409   -6.918138   -1.755559
N     -1.134487   -8.186784   -1.263802
C     -0.616908   -8.240669   -0.006708
C     -0.091463   -7.149791    0.694681
N     -0.019726   -5.875263    0.223688
C     -0.532059   -5.784704   -1.040939
C      2.014214    3.307768    1.247159
C      2.500733    2.813235    2.400468
H      4.204120    3.729372    3.352521
H      2.647525    3.994626    4.194336
H      3.143400    6.126862    2.665132
H      1.833382    6.659004    0.267131
H      0.473122    5.617447   -1.461850
H      2.955931    0.648652    1.034512
H      1.522896   -3.727520   -0.062369
H     -1.916108    0.401141   -3.077556
H     -2.964290    2.833019   -3.175705
H     -1.695535    2.660241   -4.425346
H     -1.095917    4.674658   -2.772552
H     -1.982010   -7.239161   -3.736860
H     -0.632831   -9.225983    0.450970
H      0.301052   -7.286391    1.698739
H      2.444397    1.798552    2.759493
