44

C     -1.324589   -3.227040   -1.166486
C     -1.441736   -3.230186   -2.571318
C     -1.023572   -1.953462   -3.029884
C     -0.869122   -1.247546   -4.174101
S     -0.288051    0.329669   -3.715444
C     -0.291683   -0.021141   -2.013062
C      0.078333    0.974826   -1.018935
C     -0.401992    2.302724   -1.064660
C     -0.046014    3.297869   -0.125105
C      0.839979    3.078332    0.952891
C      1.191633    4.116904    1.899418
N      0.172035    4.794684    2.526726
C      0.430882    5.786466    3.435841
C      1.675707    6.263054    3.832516
C      2.750946    5.628354    3.183546
N      4.048688    5.918307    3.368568
S      4.903436    4.911327    2.362760
N      3.667987    4.081112    1.633019
C      2.522277    4.528616    2.179980
C      1.337482    1.749355    1.074060
N      2.138546    1.279640    2.047693
S      2.450555   -0.305805    1.702521
N      1.523569   -0.512252    0.348485
C      0.954271    0.674723    0.066453
C     -0.704656   -1.299999   -1.858102
N     -0.852865   -2.004656   -0.695777
C     -1.073143   -1.608596   -5.577257
C     -0.631931   -2.852414   -6.052936
C     -0.825028   -3.218088   -7.387761
C     -1.465346   -2.345165   -8.263993
C     -1.912884   -1.107827   -7.806801
C     -1.718789   -0.742094   -6.471743
H     -1.536352   -4.014709   -0.454995
H     -1.788893   -4.063387   -3.167727
H     -1.093387    2.589290   -1.859268
H     -0.480122    4.292848   -0.246413
H     -0.469112    6.222089    3.870565
H      1.807041    7.053296    4.557307
H     -0.618800   -1.699856    0.242150
H     -0.120576   -3.544578   -5.387340
H     -0.472656   -4.183510   -7.741356
H     -1.615800   -2.628999   -9.302265
H     -2.415938   -0.425922   -8.487415
H     -2.088456    0.223901   -6.136007
