32

C      0.266765    2.947923   -3.108546
C      0.977783    2.522370   -1.999255
C      0.536118    1.431614   -1.222846
C      1.329720    1.016398   -0.064278
C      2.359711    0.067674   -0.213727
C      3.153296   -0.348240    0.864180
C      2.869244    0.234450    2.098064
N      3.405235    0.095929    3.347495
N      2.788518    0.878323    4.247685
N      1.840917    1.551603    3.606543
C      1.869181    1.177119    2.289929
C      1.085924    1.584372    1.201512
C     -0.670699    0.743202   -1.574318
C     -1.358906    1.203776   -2.706718
C     -0.904970    2.295587   -3.475560
S     -2.779387    0.289653   -3.020960
C     -2.522080   -0.713635   -1.683432
N     -3.399395   -1.703057   -1.408467
C     -3.094275   -2.429088   -0.318430
C     -1.991012   -2.228851    0.486183
C     -1.110517   -1.198881    0.162022
C     -1.370802   -0.391089   -0.972734
H      0.623176    3.791855   -3.694154
H      1.894168    3.043711   -1.725815
H      2.549867   -0.362785   -1.197423
H      3.942502   -1.080836    0.734642
H      4.167964   -0.493923    3.655910
H      0.303701    2.322930    1.346806
H     -1.465087    2.626767   -4.346668
H     -3.801057   -3.224031   -0.091963
H     -1.815591   -2.857649    1.352283
H     -0.242424   -1.032229    0.790126
