25

C      0.105817   -3.793399    2.498717
C      1.257288   -3.164810    2.032302
C      1.170588   -2.006799    1.250853
C     -0.096489   -1.470209    0.936667
C     -0.549214   -0.338522    0.185328
C      0.212324    0.691988   -0.499273
C      1.240281    1.363295    0.162483
C      1.939677    2.338767   -0.528152
N      1.687851    2.679665   -1.810072
C      0.688376    2.014847   -2.428205
C     -0.070720    1.026762   -1.823809
C     -1.929527   -0.350086    0.221594
N     -2.326733   -1.429764    0.964630
C     -1.231041   -2.130359    1.413169
C     -1.162178   -3.288908    2.196625
H      0.193103   -4.692954    3.103870
H      2.233985   -3.577300    2.272942
H      2.075893   -1.532153    0.884138
H      1.486976    1.145488    1.195786
H      2.745153    2.890667   -0.052325
H      0.507770    2.305598   -3.459033
H     -0.854368    0.525473   -2.380663
H     -2.663195    0.322554   -0.202629
H     -3.285510   -1.680325    1.162191
H     -2.057218   -3.784548    2.558070
