37

Si    -0.047600   -1.451745    4.505910
C     -1.299219   -0.733275    5.769012
C     -1.993537    0.298932    5.243583
C     -1.618990    0.592036    3.881236
C     -0.648759   -0.189232    3.335239
C     -0.376689    0.195658    2.015563
N      0.506199   -0.296886    1.109974
C      0.387799    0.439006   -0.066455
C      1.083645    0.305854   -1.277514
C      0.788134    1.187809   -2.336138
C     -0.196119    2.170171   -2.144583
C     -0.891205    2.300533   -0.933032
C     -0.598382    1.423679    0.122870
C     -1.050669    1.240557    1.424836
Si    -2.265854    1.918401    2.692360
C      1.486880    1.057348   -3.620332
C      1.543728   -0.165071   -4.338603
C      2.209799   -0.329035   -5.576585
C      2.889328    0.715020   -6.220917
C      2.877420    1.966947   -5.562385
N      3.468490    3.084400   -6.012871
S      3.171562    4.260381   -4.881338
N      2.276994    3.411307   -3.775416
C      2.166021    2.152352   -4.238338
H      1.353198   -1.250564    4.954706
H     -0.395165   -2.845478    4.129969
H     -1.384462   -1.150714    6.759473
H     -2.752558    0.854836    5.779033
H      1.150070   -1.062848    1.245762
H      1.847308   -0.458583   -1.388054
H     -0.439493    2.860025   -2.951424
H     -1.643600    3.075098   -0.821389
H     -3.694152    1.696363    2.344600
H     -1.948236    3.289547    3.170640
H      1.032514   -1.035801   -3.922824
H      2.190630   -1.310453   -6.051387
H      3.395790    0.578669   -7.168726
