36

C     -1.446807    0.130355    0.489823
C     -2.546438   -0.776325    1.041150
C     -2.102324   -2.046463    1.153852
C     -0.719383   -2.107248    0.706941
C      0.136307   -3.205471    0.647837
C      1.444387   -3.028361    0.177141
C      1.854336   -1.756700   -0.219555
C      0.968642   -0.637730   -0.154766
Si     1.855571    0.955717   -0.775727
C      3.402834   -0.059074   -1.081452
C      4.705294    0.080725   -1.542392
C      5.255099   -1.189254   -1.464673
N      4.306765   -2.067635   -0.969968
C      3.159790   -1.370792   -0.732046
C     -0.315166   -0.827811    0.310484
C     -3.871868   -0.378809    1.400127
S     -5.088075   -1.483347    2.036958
C     -6.308401   -0.269593    2.190636
C     -5.777706    0.889753    1.771219
O     -6.409007    2.094171    1.730243
C     -5.385810    2.874028    1.225727
C     -4.199592    2.171937    0.976526
C     -4.473004    0.839632    1.346211
H     -1.188547    0.911850    1.211339
H     -1.746326    0.567188   -0.468030
H     -2.632818   -2.916139    1.508212
H     -0.202542   -4.187951    0.961739
H      2.119303   -3.875865    0.126666
H      1.974532    1.953759    0.319493
H      1.202934    1.477492   -2.005197
H      5.211131    0.971022   -1.892654
H      6.242902   -1.549609   -1.718646
H      4.446192   -3.056675   -0.813532
H     -7.304289   -0.459301    2.562704
H     -5.652100    3.915157    1.097008
H     -3.287528    2.595874    0.583436
