34

C      0.035188   -3.535048   -0.962166
C     -0.136581   -2.104949   -1.477473
C      1.147361   -1.589984   -2.130685
C     -1.341770   -1.984458   -2.423839
C     -1.725622   -2.518214   -3.675172
C     -2.969278   -2.030439   -4.049763
S     -3.643326   -0.940637   -2.882564
C     -2.301886   -1.127782   -1.916795
C     -1.864979   -0.625457   -0.667481
S     -2.460743    0.416553    0.479880
C     -1.042906    0.191592    1.467525
C     -0.928790    0.907817    2.739492
C     -1.999014    1.051781    3.655110
C     -1.891228    1.738840    4.887745
C     -0.703320    2.345364    5.323434
C      0.409502    2.235589    4.456439
N      1.628531    2.743969    4.692838
S      2.562908    2.353773    3.379835
N      1.472021    1.512499    2.458911
C      0.307258    1.502160    3.134735
C     -0.141999   -0.688718    0.869772
C     -0.627282   -1.159521   -0.370999
H      0.288845   -4.221396   -1.778134
H     -0.882407   -3.909768   -0.492485
H      0.832968   -3.591981   -0.212800
H      1.435683   -2.215805   -2.982994
H      1.979648   -1.586415   -1.417559
H      1.030297   -0.564649   -2.502151
H     -1.146672   -3.210172   -4.273577
H     -3.525755   -2.252891   -4.949799
H     -2.965243    0.605102    3.414675
H     -2.772131    1.797755    5.528080
H     -0.634414    2.868968    6.269439
H      0.808477   -0.964887    1.310438
