44

Si     1.998847   -3.132766    0.976967
C      0.218032   -2.744442    0.615765
C      0.093625   -1.761635   -0.301672
C     -1.185704   -1.245522   -0.784975
C     -1.163617   -0.269362   -1.715575
C      0.091033    0.285513   -2.263746
C      0.017603    1.278190   -3.223318
N      1.092770    1.860034   -3.783022
C      2.321685    1.456130   -3.390937
C      3.456846    2.055197   -3.966490
C      3.381637    3.060468   -4.937636
N      4.448517    3.666471   -5.519603
C      5.668944    3.259250   -5.123598
C      5.873778    2.275893   -4.173433
C      4.751459    1.669077   -3.590000
C      4.852961    0.677921   -2.631700
N      3.789528    0.080772   -2.057006
C      2.532082    0.448052   -2.417225
C      1.376482   -0.141838   -1.851337
C      1.384805   -1.224407   -0.814486
C      2.463138   -1.817683   -0.258252
C     -2.470873   -1.662143   -0.316252
S     -3.460702   -2.738136   -1.259611
C     -4.732276   -2.758483   -0.089626
C     -4.411391   -1.977786    0.986480
C     -5.138253   -1.693760    2.185392
C     -4.506861   -0.868443    3.049270
Si    -2.791924   -0.328583    2.374588
C     -3.136351   -1.372756    0.842185
H      2.384313   -2.773593    2.363271
H      2.386369   -4.494894    0.537705
H     -0.576253   -3.283053    1.108848
H     -2.092917    0.152380   -2.092312
H     -0.936246    1.652843   -3.586621
H      2.418356    3.423983   -5.291794
H      6.504312    3.759706   -5.605076
H      6.883984    1.992558   -3.897512
H      5.816919    0.317939   -2.281363
H      3.504856   -1.624662   -0.450792
H     -5.624807   -3.341430   -0.267605
H     -6.119289   -2.113532    2.375786
H     -4.857342   -0.518071    4.006507
H     -2.769984    1.134395    2.123665
H     -1.708717   -0.853290    3.243555
