33

C     -1.195601   -1.783174    5.684834
C     -0.189007   -2.726392    5.572712
C      0.264083   -2.723623    4.225154
C      1.226855   -3.411094    3.466186
N      1.454989   -3.195160    2.136476
C      0.716384   -2.260683    1.483117
C      0.721141   -1.822416    0.138846
C      1.428173   -2.130347   -1.016218
N      1.148611   -1.476099   -2.175637
C      0.184279   -0.516986   -2.236624
C     -0.565363   -0.156552   -1.115062
C     -0.259248   -0.839324    0.052536
O     -0.864632   -0.649236    1.264814
C     -0.260406   -1.515092    2.107068
C     -0.498884   -1.770776    3.588041
N     -1.376072   -1.201346    4.452269
C     -0.047726    0.137208   -3.536623
N     -1.029442    1.116790   -3.608600
C     -1.317450    1.779822   -4.769853
C     -0.715853    1.601359   -6.006055
C      0.290871    0.619761   -6.001896
N      1.015764    0.267851   -7.075966
S      2.060136   -0.915605   -6.570266
N      1.640232   -1.031959   -4.976410
C      0.652756   -0.145839   -4.747663
H     -1.795834   -1.477751    6.531860
H      0.178095   -3.349317    6.378340
H      1.855904   -4.172760    3.918841
H      2.210811   -2.879769   -1.054805
H     -1.336070    0.602504   -1.141171
H     -2.044017   -0.475694    4.223841
H     -2.111947    2.518717   -4.664603
H     -0.990990    2.160101   -6.888772
