44

C     -1.457405   -3.167079   -4.135646
C     -1.223630   -3.109505   -5.633426
C     -0.463224   -2.068151   -6.012855
C     -0.132703   -1.355149   -4.806034
C     -0.687511   -1.951689   -3.670733
C     -0.496034   -1.422058   -2.370514
S     -1.128934   -2.059915   -0.903504
C     -0.409081   -0.827500    0.063782
C     -0.528567   -0.725437    1.470568
C      0.083923    0.310590    2.192538
C     -0.033012    0.424018    3.632192
C      0.522418   -0.497390    4.562004
C      0.384245   -0.396474    5.992653
C     -0.330139    0.629380    6.651240
C     -0.872829    1.512297    5.728033
C     -1.632117    2.614501    6.023307
N     -1.968089    3.201273    4.821434
C     -1.440122    2.479063    3.770738
C     -0.739906    1.425919    4.308783
C      0.840075    1.223303    1.419326
N      1.539035    2.278027    1.891714
S      2.252800    3.027377    0.592241
N      1.714312    2.049041   -0.642415
C      0.976797    1.135499   -0.036753
C      0.308715    0.056168   -0.732235
C      0.260024   -0.268397   -2.108709
C      0.844452    0.372262   -3.288107
C      1.613651    1.478299   -3.499852
O      1.866213    1.596797   -4.845180
C      1.245595    0.554525   -5.473928
C      0.600985   -0.225269   -4.548667
H     -1.042156   -4.084846   -3.709890
H     -2.521739   -3.074173   -3.902057
H     -1.635701   -3.842080   -6.313785
H     -0.154067   -1.804822   -7.010405
H     -1.122590   -1.464863    2.008580
H      1.102695   -1.337351    4.176972
H      0.864021   -1.161999    6.603480
H     -0.428905    0.696471    7.724664
H     -1.965699    3.041295    6.959104
H     -2.523191    4.041108    4.722862
H     -1.607055    2.797620    2.751103
H      2.059698    2.260137   -2.908843
H      1.362432    0.525028   -6.547878
