37

C      1.146958   -8.096478    0.463833
C      2.333874   -7.999371    1.151969
S      2.711689   -6.382320    1.551530
C      1.287759   -5.783006    0.797627
C      0.542762   -6.820930    0.263938
C      0.985344   -4.346907    0.803772
C     -0.320170   -3.890120    0.989746
C     -0.592975   -2.519641    0.981140
C      0.443835   -1.607203    0.781805
N      1.722601   -2.032308    0.592857
C      1.957795   -3.370386    0.608102
C      0.215475   -0.141632    0.763177
C      1.258218    0.771584    0.595346
C      0.987086    2.142081    0.583892
C     -0.322496    2.593573    0.741788
C     -1.301675    1.619500    0.905126
N     -1.069521    0.282422    0.917050
C     -0.665365    4.011988    0.723832
S      0.182677    5.143449    1.720652
C     -0.761957    6.482914    1.190403
C     -1.693866    6.075953    0.280344
S     -2.947999    7.002482   -0.619568
C     -3.355507    5.451990   -1.342423
C     -2.597886    4.352627   -0.920963
C     -1.615863    4.703653    0.044648
H      0.730902   -9.035737    0.120402
H      2.999251   -8.800939    1.442338
H     -0.394917   -6.674452   -0.259099
H     -1.137162   -4.587469    1.156419
H     -1.611008   -2.171876    1.133211
H      2.998576   -3.634415    0.437614
H      2.280225    0.423768    0.471271
H      1.807368    2.841194    0.441480
H     -2.345294    1.890325    1.046286
H     -0.600463    7.487624    1.556007
H     -4.158699    5.444097   -2.066953
H     -2.760899    3.355540   -1.312269
