47

C     -1.028746    1.036655    3.481201
C      0.446800    1.021910    3.204561
C      0.656537    0.826085    1.893214
C      1.903624    0.732825    1.144686
C      1.787421    0.530831   -0.190600
C      0.493584    0.423087   -0.875156
C     -0.695654    0.506982   -0.229776
C     -1.884573    0.386515   -1.009852
S     -2.949974    1.740020   -1.223580
C     -4.071213    0.863670   -2.215422
C     -5.261642    1.465874   -2.758905
C     -5.919040    1.141019   -3.933831
N     -7.063952    1.862504   -4.220319
C     -7.265554    2.737383   -3.261641
S     -6.124363    2.740312   -1.985906
C     -3.620568   -0.423004   -2.381041
C     -4.072652   -1.669022   -3.070494
C     -2.953843   -2.636193   -2.677866
C     -2.029990   -2.027919   -1.901124
C     -2.405172   -0.674215   -1.698184
C     -0.633412    0.711246    1.212371
C     -1.618680    0.820042    2.117643
C      3.212790    0.787463    1.711145
S      4.288815    2.115895    1.370427
C      5.549692    1.488667    2.370554
C      5.139189    0.320826    2.933330
C      5.697690   -0.635206    3.816436
C      4.797087   -1.622087    4.028807
C      3.499130   -1.369541    3.252614
C      3.832481   -0.081784    2.576759
H     -1.342003    1.998532    3.897461
H     -1.309007    0.229471    4.164223
H      1.208176    1.155262    3.957963
H      2.666406    0.430712   -0.823120
H      0.540196    0.277909   -1.952003
H     -5.602668    0.380979   -4.636996
H     -8.104849    3.420508   -3.270668
H     -4.106941   -1.546190   -4.156365
H     -5.037750   -2.016397   -2.691439
H     -2.923076   -3.670175   -2.988030
H     -1.144987   -2.490708   -1.486771
H     -2.677892    0.771302    1.916269
H      6.488292    2.013467    2.475741
H      6.687586   -0.576601    4.246166
H      4.953945   -2.483919    4.660068
H      3.314725   -2.171592    2.532592
H      2.653573   -1.266155    3.937893
