44

C      3.086239    1.256079    1.044347
C      3.996728    1.582519    2.227509
C      3.396442    1.293825    3.403661
C      2.093917    0.780060    3.161620
C      1.873927    0.755310    1.758950
C      0.620416    0.314896    1.419700
S     -0.259731   -0.081500    2.856011
C      1.044197    0.340569    3.920964
C      0.921083    0.208882    5.347389
C      1.888060    0.165304    6.335600
C      1.235701    0.028059    7.586435
C     -0.115744   -0.014963    7.337867
N     -0.295094    0.087791    5.983949
C     -0.012405    0.160867    0.120138
C     -1.259289    0.692875   -0.216448
N     -1.914929    0.593738   -1.416041
C     -1.356181   -0.072871   -2.477718
C     -2.139438   -0.112533   -3.707203
S     -1.392485   -0.094776   -5.273823
C     -2.897390   -0.135258   -6.117056
C     -3.941883   -0.132914   -5.235354
C     -5.354055   -0.149703   -5.461918
C     -6.108444   -0.135298   -4.341317
Si    -5.013115   -0.089561   -2.762491
C     -3.497042   -0.106407   -3.887757
C     -0.092923   -0.694521   -2.283170
N      0.619982   -1.438599   -3.149417
S      2.003318   -1.907146   -2.377458
N      1.780408   -1.200951   -0.899280
C      0.596043   -0.562384   -0.935996
H      2.870319    2.154493    0.459570
H      3.544199    0.489301    0.415061
H      4.990282    1.991312    2.119480
H      3.833911    1.445008    4.379371
H      2.957386    0.213246    6.183771
H      1.704339   -0.037657    8.559831
H     -0.962661   -0.114625    8.003324
H     -1.187407    0.078934    5.508558
H     -1.815486    1.272092    0.521797
H     -2.916575   -0.149852   -7.197590
H     -5.775641   -0.173051   -6.460155
H     -7.183483   -0.143296   -4.265084
H     -5.205157   -1.333501   -1.973921
H     -5.248488    1.180640   -2.030373
