43

C      2.107526   -0.689708    0.847834
C      2.582565    0.587071    1.516978
C      1.632176    1.526791    1.356535
C      0.517706    0.999348    0.597773
C      0.773349   -0.287210    0.289546
C     -0.169068   -1.124383   -0.467214
C      0.130271   -2.481857   -0.773644
N      1.251797   -3.176048   -0.474934
S      1.061442   -4.723700   -1.076811
N     -0.464619   -4.602940   -1.750349
C     -0.790090   -3.345799   -1.489362
C     -2.043328   -2.784876   -1.872664
C     -3.083884   -3.431262   -2.544025
C     -4.071054   -2.479660   -2.653464
N     -3.622659   -1.316390   -2.065308
C     -2.336622   -1.462539   -1.576436
C     -1.434953   -0.597697   -0.907616
C     -1.721906    0.839587   -0.617517
C     -2.781853    1.585124   -0.998809
Si    -2.665121    3.353487   -0.369941
C     -1.034608    2.909862    0.393023
C     -0.715324    1.620232    0.165205
C      3.786579    0.835331    2.232382
S      4.560604   -0.458346    3.101294
C      5.838617    0.534115    3.679313
C      5.699732    1.805930    3.209284
S      6.728858    3.264341    3.451596
C      5.571882    4.065775    2.401068
C      4.512696    3.279772    1.932385
C      4.562054    1.940104    2.412422
H      2.805869   -0.980829    0.056137
H      2.004048   -1.495305    1.582202
H      1.650213    2.534429    1.741325
H     -3.126339   -4.453897   -2.896338
H     -5.060487   -2.526190   -3.089134
H     -4.184713   -0.484897   -1.985968
H     -3.635123    1.333365   -1.594904
H     -3.716511    3.649782    0.631742
H     -2.541839    4.325847   -1.481623
H     -0.449566    3.643911    0.923317
H      6.625879    0.155644    4.316326
H      5.750600    5.108779    2.177618
H      3.756161    3.675694    1.266940
