43

C     -4.028437   -1.391250    2.742315
C     -3.519606   -0.867349    3.935105
C     -2.265365   -0.215046    3.766239
C     -1.412119    0.430750    4.607555
S     -0.070514    0.966051    3.645055
C     -0.703090    0.313179    2.190772
C     -0.037543    0.413698    0.936547
S      0.812975   -0.896136    0.214760
C      1.272682    0.028618   -1.167889
C      2.068300   -0.569621   -2.216989
C      1.675243   -1.687300   -2.995927
C      2.476050   -2.255890   -4.049151
C      3.748770   -1.771303   -4.431879
C      4.112331   -0.681274   -3.651974
C      5.287004    0.018373   -3.747500
N      5.246632    1.000553   -2.780336
C      4.061883    0.931622   -2.075996
C      3.329314   -0.103953   -2.605800
C      0.754101    1.272878   -1.019479
C      0.766981    2.444065   -1.822028
C      0.065185    3.504473   -1.238844
S     -0.678061    3.182384    0.321228
C      0.018442    1.523945    0.139826
C     -1.903863   -0.297132    2.418668
S     -3.049678   -1.147994    1.306976
C     -1.469070    0.702342    6.045170
N     -0.472832    1.404408    6.590348
C     -0.597989    1.611661    7.897091
N     -1.598912    1.187923    8.664058
C     -2.528785    0.500304    8.006690
N     -2.526062    0.223100    6.705875
H     -4.960060   -1.926714    2.618177
H     -4.048272   -0.962624    4.876061
H      0.706291   -2.147515   -2.798437
H      2.071369   -3.116183   -4.584033
H      4.341275   -2.208859   -5.222419
H      6.147298   -0.084935   -4.394731
H      5.985268    1.668992   -2.603586
H      3.866885    1.621892   -1.266487
H      1.258280    2.529141   -2.784198
H     -0.068588    4.495065   -1.651627
H      0.188624    2.179249    8.382790
H     -3.367892    0.131118    8.586697
