23

N      0.740706    1.413533    0.838497
C      1.342548    2.177103    1.831580
C      0.828131    3.369393    2.161674
C     -0.387352    3.765734    1.394711
N     -0.971325    3.075430    0.463442
C     -0.400343    1.867346    0.170731
N     -0.760591    0.962675   -0.709758
C      0.171310   -0.037906   -0.566949
C      0.129351   -1.252689   -1.378439
C     -0.879410   -1.428207   -2.337295
C     -0.927590   -2.586372   -3.117832
C      0.032472   -3.582016   -2.948213
C      1.040684   -3.421808   -1.999584
C      1.089125   -2.263568   -1.218803
N      1.102707    0.202392    0.368395
H      2.220929    1.749940    2.295895
H      1.229080    4.027466    2.918746
H     -0.808963    4.747771    1.668369
H     -1.636725   -0.659378   -2.481612
H     -1.715285   -2.708173   -3.856797
H     -0.005287   -4.482709   -3.555423
H      1.790554   -4.197029   -1.865541
H      1.883076   -2.154734   -0.482795
