44

C      4.609029    2.198775    0.800785
C      5.690170    3.255928    0.547933
C      5.510872    3.868354   -0.644746
C      4.364673    3.327324   -1.276540
C      3.701800    3.541155   -2.445595
S      2.335735    2.485581   -2.527855
C      2.675708    1.765794   -0.989294
C      3.802356    2.328830   -0.447235
C      1.844981    0.738838   -0.444845
S      0.204234    0.994575    0.006106
C     -0.013648   -0.629356    0.546522
C     -1.246882   -1.095218    1.105429
S     -2.788429   -0.830555    0.342898
C     -3.683019   -1.674123    1.568885
C     -5.103957   -1.847109    1.543958
S     -5.898544   -3.261841    2.199655
C     -7.486650   -2.723094    1.772829
C     -7.358428   -1.532090    1.164059
O     -8.371255   -0.768435    0.672274
C     -7.640793    0.300233    0.187925
C     -6.258272    0.183733    0.379811
C     -6.077532   -1.052217    1.033263
C     -2.793817   -2.103810    2.490897
O     -3.054330   -2.790140    3.640454
C     -1.774126   -2.912233    4.144041
C     -0.785850   -2.327563    3.344756
C     -1.476873   -1.792946    2.241750
C      1.158302   -1.285948    0.353831
C      1.585920   -2.625698    0.562783
C      2.915546   -2.835100    0.182592
S      3.766836   -1.445084   -0.468999
C      2.214540   -0.555555   -0.197954
H      5.058807    1.207969    0.901177
H      4.024285    2.446867    1.690883
H      6.487480    3.469310    1.244239
H      6.135227    4.648079   -1.057515
H      3.916812    4.236015   -3.244742
H     -8.387703   -3.281197    1.979978
H     -8.245691    1.073298   -0.267995
H     -5.515593    0.909046    0.080174
H     -1.724832   -3.438682    5.088635
H      0.272356   -2.299379    3.562044
H      0.968374   -3.422600    0.959497
H      3.465583   -3.764794    0.241180
