39

C      3.263094   -4.523330   -0.613009
N      2.621654   -3.224092   -0.440937
C      3.406980   -2.079539   -0.215104
C      4.797104   -2.088930   -0.027949
C      5.511349   -0.901384    0.180466
C      4.848565    0.321758    0.210669
C      3.468696    0.357036    0.042722
C      2.760561   -0.832066   -0.158126
O      1.397421   -0.696514   -0.299766
C      0.626064   -1.845350   -0.326839
C     -0.774214   -1.672585   -0.300748
C     -1.395804   -0.347553   -0.224388
C     -1.164807    0.709676    0.638107
C     -2.034910    1.777597    0.286331
C     -2.258051    3.066440    0.784589
N     -3.185990    3.875150    0.213702
C     -3.887173    3.413946   -0.845819
C     -3.740874    2.156764   -1.413830
C     -2.784530    1.346389   -0.806325
N     -2.376842    0.065869   -1.098074
C     -1.593695   -2.806965   -0.333269
C     -1.032354   -4.080041   -0.385827
C      0.356138   -4.236957   -0.416124
C      1.216101   -3.128703   -0.400531
H      2.688521   -5.186355   -1.268797
H      4.236820   -4.446538   -1.108449
H      3.399013   -5.015619    0.355805
H      5.361801   -3.015048   -0.024270
H      6.588809   -0.937074    0.321703
H      5.402861    1.242463    0.370344
H      2.937615    1.304351    0.071012
H     -0.441499    0.709814    1.443836
H     -1.715682    3.474283    1.629465
H     -4.609779    4.117809   -1.251246
H     -4.328463    1.838841   -2.264449
H     -2.732882   -0.489978   -1.862433
H     -2.675817   -2.709495   -0.287748
H     -1.675779   -4.956558   -0.391716
H      0.740489   -5.251441   -0.435072
