26

C      1.826614   -1.971952    0.613035
C      1.291567   -1.261655    1.681966
C      0.531824   -0.092319    1.473434
C     -0.041881    0.595953    2.613892
N     -1.371281    0.953950    2.682315
C     -1.462787    1.453994    3.887853
O     -0.298759    1.436108    4.580826
N      0.647754    0.852170    3.740237
C      0.331356    0.384333    0.150046
C      0.882088   -0.368985   -0.895451
C      1.623296   -1.541176   -0.696175
N      0.554963    0.255429   -2.074993
C     -0.151572    1.406168   -1.843337
C     -0.654592    2.341077   -2.739939
N     -1.314432    3.420213   -2.268523
C     -1.462033    3.558292   -0.934868
C     -0.984649    2.662403    0.010924
C     -0.304849    1.526949   -0.462071
H      2.403948   -2.874551    0.800285
H      1.456869   -1.627200    2.694394
H     -2.324380    1.867879    4.389001
H      2.037020   -2.098947   -1.531095
H      0.820176   -0.080266   -2.989532
H     -0.546393    2.261606   -3.814617
H     -1.998005    4.451142   -0.624150
H     -1.138019    2.852117    1.064435
