46

C      1.798218   -0.089169    4.426128
O      2.448360   -0.275956    3.169712
C      2.851143    0.906465    2.598269
C      3.649386    1.818025    3.297209
C      4.112113    2.972766    2.664346
C      3.791391    3.215586    1.330179
C      3.012163    2.299921    0.620740
C      2.543986    1.131417    1.243726
N      1.715903    0.209723    0.517061
C      0.400690    0.061902    1.020817
O     -0.096560    0.789951    1.884067
N     -0.327141   -0.970494    0.469443
C     -1.730538   -1.149612    0.751971
C     -2.587442   -0.440027   -0.265350
C     -3.012540   -1.099820   -1.427333
C     -3.788102   -0.431910   -2.376750
C     -4.138644    0.902507   -2.178658
C     -3.710681    1.572146   -1.033901
C     -2.935916    0.905833   -0.083543
C      2.164325   -0.356784   -0.679408
N      1.387067   -0.980058   -1.511199
C      2.153904   -1.430007   -2.690060
C      3.607045   -1.658756   -2.299266
C      4.566896   -1.568367   -3.470366
S      3.873046   -0.341769   -1.094849
H      2.537162   -0.012296    5.229753
H      1.184598   -0.974467    4.618496
H      1.137426    0.785185    4.426308
H      3.937005    1.629662    4.326806
H      4.729559    3.680568    3.211850
H      4.147484    4.118675    0.840811
H      2.754202    2.517874   -0.412595
H     -0.008897   -1.271978   -0.448903
H     -1.931175   -2.226489    0.724545
H     -1.969688   -0.804529    1.764237
H     -2.739111   -2.138125   -1.599959
H     -4.115745   -0.951727   -3.273062
H     -4.740506    1.422705   -2.918855
H     -3.974813    2.615185   -0.881323
H     -2.594851    1.442105    0.800946
H      2.049484   -0.682034   -3.486634
H      1.719195   -2.362043   -3.068250
H      3.715525   -2.621356   -1.787431
H      4.492354   -0.606844   -3.990745
H      5.603769   -1.698880   -3.141991
H      4.349267   -2.355717   -4.200174
