25

O      2.819920   -0.444473    2.351874
C      1.974464   -1.278731    2.057096
C      2.195529   -2.705253    2.364164
C      1.292400   -3.638477    2.054904
C      0.020414   -3.298785    1.387597
O     -0.786706   -4.176852    1.113505
C     -0.232881   -1.879826    1.068128
C     -1.432213   -1.517436    0.436328
C     -1.696467   -0.176181    0.123471
C     -2.940507    0.187395   -0.535350
C     -3.808245   -0.569465   -1.359719
N     -4.872732    0.125784   -1.768361
N     -4.698003    1.329366   -1.202927
C     -3.558758    1.418149   -0.455045
C     -0.736127    0.793150    0.451099
C      0.459788    0.433182    1.081475
C      0.710629   -0.906679    1.391025
H      3.130598   -2.952245    2.853817
H      1.452056   -4.687086    2.278863
H     -2.160584   -2.292907    0.203034
H     -3.706512   -1.597565   -1.683826
H     -5.399403    2.044222   -1.367338
H     -3.309982    2.332988    0.062999
H     -0.897942    1.841693    0.209477
H      1.192132    1.201381    1.325005
