35

C     -1.859236   -0.869924    3.729782
C     -1.844540    0.587130    3.401295
C     -1.329339    0.768622    2.173128
C     -0.921277   -0.515902    1.611649
C     -1.290856   -1.474783    2.482744
C     -0.380831   -0.629245    0.224237
C      0.240949   -1.845897   -0.276663
C      0.729899   -2.902653    0.534203
C      1.286742   -4.079143    0.011816
C      1.401950   -4.248487   -1.358735
C      0.992176   -3.226161   -2.202944
C      0.442774   -2.034802   -1.670766
C      0.081927   -0.957412   -2.537272
N      0.170080   -0.967389   -3.881224
S     -0.332322    0.511545   -4.411400
N     -0.671018    1.237741   -2.969957
C     -0.417944    0.355093   -1.985898
C     -0.588850    0.557810   -0.580434
C     -0.928312    1.888914    0.020845
C     -0.865870    3.107226   -0.663681
N     -1.121248    4.333523   -0.133166
C     -1.448729    4.377100    1.167341
C     -1.527585    3.254560    1.964335
C     -1.263704    2.004283    1.390120
H     -2.880023   -1.221775    3.905723
H     -1.236138   -1.091960    4.600712
H     -2.264805    1.341134    4.048156
H     -1.254827   -2.542651    2.338497
H      0.737977   -2.809435    1.616895
H      1.641593   -4.854583    0.686742
H      1.832566   -5.158294   -1.767795
H      1.114298   -3.345420   -3.278213
H     -0.573082    3.176732   -1.705497
H     -1.646155    5.367321    1.566670
H     -1.784493    3.365222    3.010821
