36

C      2.016859    7.376413   -0.141573
C      3.133066    7.490399   -0.936276
S      3.564305    5.949734   -1.540035
C      2.235221    5.236339   -0.701935
N      1.510867    6.099686   -0.010719
C      1.917695    3.823736   -0.734290
S      0.564313    3.236051    0.145168
C      0.764622    1.581595   -0.311053
C     -0.165992    0.517640    0.170140
C     -0.013637   -0.841361   -0.195776
C     -0.857246   -1.898507    0.223089
C     -1.974335   -1.741973    1.069209
C     -2.783361   -2.912858    1.441491
N     -2.500854   -4.132071    1.006689
C     -3.405165   -5.052271    1.495548
C     -4.386101   -4.538475    2.308932
S     -4.169493   -2.851561    2.466374
C     -2.209187   -0.403802    1.491545
N     -3.196452    0.031401    2.294941
S     -3.028264    1.658004    2.476581
N     -1.695827    1.922138    1.551790
C     -1.290015    0.748416    1.035240
C      1.877717    1.499680   -1.140236
N      2.325924    0.328787   -1.687187
C      3.426598    0.507504   -2.458484
C      4.050759    1.731036   -2.685746
N      3.643631    2.913527   -2.166646
C      2.533761    2.776240   -1.380869
H      1.526224    8.195183    0.370431
H      3.697973    8.377247   -1.183217
H      0.803924   -1.140560   -0.849595
H     -0.615871   -2.900949   -0.141127
H     -3.300486   -6.095458    1.223718
H     -5.194476   -5.057452    2.802765
H      3.818383   -0.397484   -2.914385
H      4.931504    1.787419   -3.319146
