35

C     -1.351975    4.414857    4.245944
C     -1.960278    4.298621    2.848592
C     -1.313279    3.372731    2.104720
C     -0.263041    2.794617    2.869394
C     -0.259342    3.405466    4.149928
C      0.732261    2.929413    4.960046
S      1.657762    1.734083    4.131954
C      0.709225    1.848008    2.676675
C      1.006264    1.022352    1.535427
C      2.232463    0.530867    1.126205
N      2.228124   -0.254808   -0.011608
C      0.997148   -0.373538   -0.469520
S     -0.195630    0.454695    0.450489
C      0.716132   -1.150155   -1.656760
C      1.652033   -1.835565   -2.409565
C      1.079577   -2.512319   -3.527255
C     -0.287578   -2.333438   -3.612498
S     -0.847793   -1.343771   -2.328200
C     -1.187497   -2.865297   -4.604101
C     -2.558527   -2.725096   -4.744555
C     -2.963668   -3.450535   -5.891758
C     -1.834901   -4.020065   -6.430682
N     -0.768545   -3.661905   -5.647462
H     -2.084649    4.150345    5.013320
H     -0.961786    5.421689    4.418344
H     -2.797728    4.891613    2.511998
H     -1.554420    3.118536    1.082426
H      0.974424    3.207783    5.976194
H      3.178260    0.719837    1.620387
H      2.708302   -1.848767   -2.163877
H      1.663396   -3.098503   -4.224667
H     -3.209489   -2.158895   -4.090521
H     -3.969997   -3.544768   -6.278885
H     -1.696996   -4.647720   -7.300850
H      0.186873   -3.943897   -5.814545
