34

N     -0.358261    0.322188    3.144329
C      0.677500    0.046698    2.698137
C      1.961659   -0.325418    2.172052
C      2.894107   -0.901075    3.050957
C      4.158397   -1.274483    2.597115
C      4.500478   -1.075669    1.263717
C      3.579044   -0.503605    0.383683
C      2.295134   -0.118998    0.816942
C      1.363863    0.480983   -0.153636
C      1.624909    1.739368   -0.708685
C      0.756204    2.296445   -1.649896
C     -0.398402    1.612023   -2.052235
C     -0.695742    0.361991   -1.488237
C      0.204762   -0.198736   -0.564288
N     -1.814221   -0.395262   -1.885022
C     -2.844446    0.027065   -2.746338
C     -3.928218   -0.836496   -2.976471
C     -4.951505   -0.488233   -3.860086
C     -4.896792    0.723255   -4.540232
C     -3.815105    1.581189   -4.340980
C     -2.782088    1.238777   -3.454674
S     -1.434567    2.395230   -3.275275
H      2.638086   -1.059327    4.097676
H      4.875235   -1.719363    3.283378
H      5.485036   -1.366453    0.904365
H      3.866355   -0.363048   -0.657937
H      2.511457    2.298220   -0.414749
H      0.990095    3.272284   -2.070311
H     -0.000507   -1.188587   -0.160904
H     -2.078340   -1.131259   -1.241823
H     -3.982208   -1.794531   -2.465801
H     -5.786344   -1.165733   -4.019648
H     -5.689718    0.999453   -5.230352
H     -3.780614    2.521745   -4.886353
