33

C      0.318162    6.338475   -2.514461
C      1.314542    6.690830   -1.627916
N      1.834202    5.851956   -0.705950
C      1.369610    4.603124   -0.631918
N      1.891564    3.787861    0.281846
C      1.427232    2.515252    0.366819
C      0.430146    1.968302   -0.433020
C     -0.010535    0.575517   -0.269219
C      0.414128   -0.405761    0.617153
C     -0.322448   -1.598290    0.380619
C     -0.325706   -2.882169    0.954212
C     -1.201221   -3.868339    0.479237
C     -1.483780   -5.223761    0.792075
C     -2.478716   -5.623053   -0.071915
O     -2.832499   -4.604955   -0.900504
C     -2.055847   -3.539983   -0.564619
C     -2.080611   -2.285682   -1.154302
C     -1.200172   -1.323592   -0.663338
N     -0.995240   -0.017213   -1.035557
C     -0.110331    2.829437   -1.386828
C      0.353141    4.154243   -1.496164
C     -0.171757    5.043533   -2.446285
H     -0.064097    7.051584   -3.235819
H      1.740801    7.690374   -1.630114
H      1.916908    1.932425    1.142271
H      1.182243   -0.290842    1.371064
H      0.354809   -3.109587    1.770116
H     -1.019455   -5.833884    1.553228
H     -3.015579   -6.549852   -0.218424
H     -2.765628   -2.074046   -1.967847
H     -1.508678    0.434452   -1.777002
H     -0.894116    2.497282   -2.059497
H     -0.956991    4.732292   -3.129899
