39

C     -4.214270   -4.153758    2.739625
C     -3.929820   -5.085985    1.749687
N     -2.950202   -4.979477    0.822785
C     -2.238838   -3.843679    0.944178
N     -1.193618   -3.500489    0.135591
C     -0.678526   -2.279062    0.506578
C      0.381671   -1.541411   -0.036870
C      0.708764   -0.305062    0.550174
C      1.797943    0.500491    0.006257
C      3.002791    0.722166    0.672601
N      4.038714    1.457960    0.204113
C      3.925354    2.041677   -1.013181
C      2.756649    1.892946   -1.771102
C      1.715061    1.126625   -1.245329
N      0.690672    1.155111   -2.166184
C      1.041857    1.893678   -3.269513
C      0.329440    2.181276   -4.431604
C      1.002567    2.972982   -5.349445
N      2.252654    3.458127   -5.184508
C      2.924372    3.165371   -4.043321
C      2.333905    2.371003   -3.051821
C     -0.024493    0.147263    1.655744
C     -1.084201   -0.600558    2.187960
C     -1.421082   -1.837026    1.604072
C     -2.411406   -2.829999    1.878104
C     -3.444294   -2.992232    2.817577
H     -5.023049   -4.328545    3.441024
H     -4.520273   -5.996687    1.675645
H     -0.863200   -4.079442   -0.620648
H      0.945910   -1.921669   -0.884858
H      3.176898    0.282461    1.652811
H      4.779034    2.619636   -1.348872
H     -0.200081    0.695106   -2.037268
H     -0.674083    1.819545   -4.613052
H      0.528112    3.250934   -6.287478
H      3.922834    3.578239   -3.955826
H      0.218912    1.104373    2.115659
H     -1.638283   -0.225661    3.043879
H     -3.637414   -2.243107    3.577741
