40

C      2.348862    4.549233    2.364228
C      1.791476    3.332219    2.409530
C      1.886290    2.329658    1.338141
C      3.037169    2.176106    0.565793
C      3.100759    1.211617   -0.446264
C      2.000401    0.360117   -0.680506
C      1.752473   -0.669597   -1.633963
C      2.521747   -1.214044   -2.686462
C      2.015775   -2.270477   -3.447181
C      0.763756   -2.798941   -3.164449
C     -0.017643   -2.275634   -2.130004
C      0.477270   -1.183305   -1.385940
N     -0.056851   -0.476638   -0.305259
C     -1.347760   -0.691730    0.263924
C     -2.462652   -0.865616   -0.564414
C     -3.730322   -1.073165   -0.006885
C     -3.891444   -1.112859    1.378264
O     -5.068116   -1.308689    2.046791
C     -6.235689   -1.488029    1.255208
C     -2.775194   -0.941202    2.200670
C     -1.507348   -0.729370    1.652439
C      0.869938    0.474071    0.129950
C      0.793375    1.473576    1.126880
H      2.225174    5.239837    3.192659
H      2.919701    4.898778    1.510383
H      1.204562    3.049371    3.280616
H      3.905791    2.807865    0.734432
H      3.998247    1.124831   -1.052276
H      3.511315   -0.819795   -2.899954
H      2.613349   -2.689163   -4.252869
H      0.388401   -3.637110   -3.747195
H     -0.978090   -2.729310   -1.905861
H     -2.375255   -0.799418   -1.646573
H     -4.570120   -1.191219   -0.683583
H     -6.154891   -2.383008    0.629456
H     -6.442769   -0.599093    0.650252
H     -7.081238   -1.632390    1.934650
H     -2.893520   -0.981010    3.281114
H     -0.657382   -0.639940    2.324378
H     -0.113199    1.604921    1.710791
