40

C      4.805285    0.740451    3.149163
O      4.389761   -0.392354    2.396397
C      3.232265   -0.273586    1.681002
C      2.874305   -1.407466    0.955803
C      1.710278   -1.416317    0.180591
C      0.879471   -0.309318    0.107860
N     -0.230632   -0.362441   -0.648849
C     -1.065675    0.705193   -0.723574
N     -2.208359    0.581668   -1.527829
C     -3.501458    0.744521   -0.837254
C     -4.418642   -0.459992   -1.052847
C     -4.644066   -0.774964   -2.540894
C     -5.868418   -0.044479   -3.093110
C     -3.399914   -0.456363   -3.386932
C     -2.131285   -0.484052   -2.537645
C     -0.761252    1.888306   -0.038696
C     -1.567424    3.066206   -0.146261
N     -2.204739    4.036596   -0.184549
C      0.394310    1.945153    0.749556
C      1.238283    0.835360    0.838603
C      2.411356    0.850708    1.621130
H      5.740690    0.481478    3.654456
H      4.069272    0.993524    3.919394
H      5.005008    1.596391    2.496077
H      3.503291   -2.293927    0.990299
H      1.447889   -2.310944   -0.378921
H     -3.989136    1.646477   -1.225378
H     -3.377307    0.882483    0.244308
H     -3.959404   -1.336048   -0.575088
H     -5.373943   -0.300383   -0.539169
H     -4.848285   -1.851205   -2.618423
H     -6.770958   -0.327547   -2.541232
H     -5.753874    1.042061   -3.018331
H     -6.027989   -0.297979   -4.146528
H     -3.495350    0.533184   -3.853132
H     -3.319228   -1.181319   -4.205479
H     -2.017748   -1.474348   -2.077257
H     -1.268076   -0.313326   -3.193127
H      0.637950    2.861858    1.283647
H      2.659614    1.752385    2.171929
