37

C      1.497843    2.333934   -0.777678
C      2.534130    3.332555   -0.301191
C      2.714168    3.145746    1.018557
C      1.868420    2.079300    1.494189
C      1.137883    1.572464    0.484263
C      0.212265    0.510147    0.643836
S     -0.176829   -0.323040    2.112891
C     -1.336259   -1.390842    1.364538
C     -2.045374   -2.392682    2.110828
S     -2.598220   -3.883188    1.378417
C     -3.286941   -4.494810    2.842586
C     -3.079523   -3.575647    3.800593
O     -3.472037   -3.669523    5.099658
C     -2.999080   -2.460165    5.572056
C     -2.354997   -1.679261    4.604122
C     -2.409534   -2.438482    3.417081
C     -1.373005   -1.067862    0.048469
C     -2.022411   -1.430525   -1.148701
C     -1.495514   -0.579845   -2.126448
O     -0.555064    0.311978   -1.651664
C     -0.538460   -0.042493   -0.334025
C      3.243813    4.325162   -1.035540
C      4.196959    5.256635   -0.645123
N      4.695807    6.090994   -1.628298
C      4.121634    5.794119   -2.770220
S      2.975068    4.525827   -2.733512
H      1.922550    1.661072   -1.530661
H      0.620478    2.847387   -1.185970
H      3.381099    3.686253    1.674022
H      1.862761    1.769830    2.529303
H     -3.784957   -5.449942    2.922243
H     -3.198191   -2.292207    6.622611
H     -1.922032   -0.702980    4.767548
H     -2.771222   -2.191978   -1.312741
H     -1.689969   -0.488945   -3.187341
H      4.573230    5.374734    0.363786
H      4.356100    6.318681   -3.687180
