46

Si    -2.922030   -2.835187   -5.123452
C     -4.231479   -1.989335   -4.102540
C     -3.675624   -1.185246   -3.176948
C     -4.357621   -0.382732   -2.221891
C     -5.711106   -0.148822   -1.914490
C     -5.701173    0.749346   -0.864774
O     -4.424053    1.078907   -0.511450
C     -3.615849    0.380019   -1.348951
C     -2.165977    0.481840   -1.266341
C     -1.534254    1.303244   -0.322777
C     -0.135677    1.328623   -0.326802
N      0.738574    2.032421    0.469263
C      2.041446    1.747717    0.131971
C      1.996821    0.861939   -0.927402
C      0.632372    0.582670   -1.218036
C     -0.016126   -0.239308   -2.163991
C     -1.419756   -0.296724   -2.195148
C     -2.176863   -1.150278   -3.173609
C     -1.619867   -1.943823   -4.114515
C      3.179542    2.368253    0.810260
C      3.959404    3.271533    0.071699
C      5.032048    3.930186    0.663024
C      5.337643    3.692395    2.000566
C      4.585119    2.786055    2.763306
C      4.915510    2.553609    4.109087
C      4.191508    1.646288    4.881045
C      3.129954    0.953274    4.315480
C      2.787422    1.174686    2.979753
C      3.493192    2.100164    2.172701
H     -2.934671   -2.396786   -6.539576
H     -2.894099   -4.301829   -4.909193
H     -5.282073   -2.158816   -4.274144
H     -6.587629   -0.569731   -2.384556
H     -6.477834    1.228459   -0.285269
H     -2.109073    1.895545    0.381928
H      0.463933    2.668530    1.204970
H      2.859168    0.448775   -1.434501
H      0.588721   -0.816358   -2.854115
H     -0.575076   -2.101143   -4.324070
H      3.721624    3.473478   -0.970798
H      5.626759    4.631511    0.083895
H      6.178915    4.219950    2.445639
H      5.750156    3.079119    4.568666
H      4.463461    1.476124    5.919314
H      2.569487    0.234098    4.907060
H      1.963972    0.597026    2.564712
