35

C     -1.254193   -2.509426   -4.258038
N     -0.719178   -2.520951   -2.915085
N      0.211689   -3.451710   -2.607533
C      0.546005   -3.196901   -1.333519
C     -0.214247   -2.073671   -0.853029
C     -0.150722   -1.515610    0.427621
C      0.788207   -2.160659    1.271491
N      0.999868   -1.743870    2.609186
C      2.371566   -1.284093    2.856021
C     -0.031229   -0.913273    3.230836
C      1.548571   -3.293264    0.797377
C      1.465215   -3.848943   -0.502038
C     -1.027176   -1.662468   -1.884057
C     -1.976522   -0.592626   -1.958268
C     -1.708778    0.757042   -1.855217
C     -2.889955    1.549397   -1.952038
C     -4.020760    0.776331   -2.112971
S     -3.650540   -0.889524   -2.153009
C     -5.391453    1.213815   -2.238950
O     -5.750829    2.389210   -2.230005
H     -2.200301   -3.055566   -4.252278
H     -1.401060   -1.476425   -4.581481
H     -0.544064   -2.996726   -4.931838
H     -0.750654   -0.671421    0.731354
H      3.114497   -2.061711    2.651140
H      2.604703   -0.401834    2.248483
H      2.493622   -1.009077    3.909929
H     -0.032741    0.103197    2.821572
H     -1.025445   -1.358165    3.111512
H      0.151752   -0.838589    4.308764
H      2.222803   -3.786594    1.498375
H      2.045322   -4.703068   -0.819931
H     -0.711868    1.160615   -1.718106
H     -2.913383    2.632498   -1.900415
H     -6.148985    0.418230   -2.350626
