29

C     -2.425324    1.872718    4.262714
S     -1.049333    0.697050    4.278778
C     -0.710827    0.615597    2.583347
C      0.372727    1.480896    2.105167
N      0.779535    1.592148    0.887999
N      0.162113    0.826689   -0.081612
C      0.688784    1.062449   -1.408249
C      0.165296    0.465828   -2.565094
C      0.705499    0.723730   -3.833577
C      1.783563    1.588693   -3.977429
C      2.321622    2.199175   -2.852615
C      1.779346    1.939336   -1.588204
C     -0.858687   -0.095917    0.217395
O     -1.404204   -0.842083   -0.597024
C     -1.293313   -0.165419    1.665492
S     -2.598806   -1.270679    2.045459
C     -1.726102   -2.847164    1.884017
H     -2.749037    2.059725    5.290083
H     -3.273769    1.474902    3.699935
H     -2.111982    2.822169    3.819550
H      0.880583    2.096203    2.867525
H     -0.682339   -0.209499   -2.536092
H      0.273340    0.243493   -4.708255
H      2.199673    1.786505   -4.961296
H      3.163898    2.878929   -2.950244
H      2.236299    2.438917   -0.737174
H     -0.850161   -2.868976    2.538493
H     -1.410212   -3.022718    0.852851
H     -2.397520   -3.658039    2.179265
