48

C      1.019853    3.921002   -3.207713
C      2.032304    4.053422   -4.324222
C      2.743615    2.936028   -4.514089
C      2.265259    2.005745   -3.529444
C      1.237487    2.507507   -2.693726
C      0.566807    1.778879   -1.597644
C     -0.538463    2.284482   -0.793932
C     -1.140003    3.559550   -0.996179
C     -2.223303    4.052345   -0.265165
C     -2.771304    3.278170    0.725036
C     -2.218624    2.027709    0.976673
C     -1.108114    1.495222    0.258014
C     -0.555423    0.218222    0.601486
C     -1.039039   -0.581317    1.679590
C     -0.426817   -1.773544    2.050123
N      0.664007   -2.215640    1.414269
C      1.111898   -1.463238    0.381471
C      0.535451   -0.283459   -0.129599
C      1.026923    0.433849   -1.281626
C      1.997691   -0.068739   -2.233122
C      2.462598   -1.353388   -2.427293
N      3.377564   -1.339386   -3.462480
C      3.452702   -0.080853   -4.001362
C      2.582341    0.697713   -3.284315
C     -0.885410   -2.629811    3.150508
S     -1.806707   -2.001303    4.480403
C     -1.919374   -3.521711    5.275923
C     -1.269402   -4.480564    4.556787
S     -1.042976   -6.238949    4.875304
C     -0.149422   -6.241029    3.361929
C     -0.050922   -5.011882    2.700223
C     -0.706350   -3.956619    3.393602
H      1.232857    4.663524   -2.433212
H      0.020761    4.039532   -3.637182
H      2.148460    4.957689   -4.904957
H      3.517664    2.753262   -5.239353
H     -0.789354    4.240621   -1.754062
H     -2.628415    5.036546   -0.484141
H     -3.616568    3.635118    1.306063
H     -2.696885    1.472814    1.777955
H     -1.906662   -0.273151    2.247768
H      2.049654   -1.844865   -0.002837
H      2.229949   -2.305839   -1.975846
H      3.874960   -2.150898   -3.806723
H      4.083727    0.124106   -4.855306
H     -2.440242   -3.651084    6.214519
H      0.267232   -7.184299    3.036305
H      0.477473   -4.896714    1.761178
