35

C      4.041921   -0.346999    2.954505
N      2.830767    0.406121    2.633438
C      2.917351    1.851954    2.833412
C      1.960860   -0.090410    1.654186
C      0.915348    0.684951    1.118390
C      0.014060    0.201197    0.143057
C     -1.065432    1.116797   -0.371766
C      0.144435   -1.116263   -0.327943
C     -0.749811   -1.686212   -1.343128
C     -0.500629   -1.487163   -2.710179
C     -1.349436   -2.031753   -3.676952
C     -2.456921   -2.784739   -3.281244
C     -3.361429   -3.364946   -4.293870
O     -3.181680   -3.210687   -5.495373
C     -2.719727   -2.996945   -1.926296
C     -1.866465   -2.449213   -0.964115
C      1.166518   -1.908414    0.206339
C      2.045778   -1.406377    1.176273
H      4.690075   -0.443896    2.076521
H      3.799466   -1.340745    3.346133
H      4.621674    0.150070    3.740530
H      1.965724    2.260406    3.189850
H      3.657173    2.104186    3.601575
H      3.215214    2.360848    1.909949
H      0.771252    1.705595    1.461125
H     -0.910558    1.327480   -1.434585
H     -2.052726    0.666889   -0.226248
H     -1.066430    2.075605    0.157624
H      0.361627   -0.902689   -3.026424
H     -1.143639   -1.867537   -4.732657
H     -4.215562   -3.949655   -3.913146
H     -3.577654   -3.581313   -1.604975
H     -2.074251   -2.614767    0.091888
H      1.290576   -2.936026   -0.130279
H      2.804665   -2.089319    1.544594
