33

O      2.130904   -0.848330    0.508311
C      2.116631    0.201904    1.382074
C      2.917621    0.333598    2.532987
C      2.787973    1.482341    3.340779
C      1.834486    2.394289    2.878727
C      1.572898    3.572529    3.540420
S      0.351030    4.500637    2.743975
C      0.157955    3.325228    1.494886
C      1.013852    2.289794    1.725444
C      1.178541    1.111108    0.937660
C      0.574505    0.649535   -0.238037
C     -0.405578    1.073110   -1.149502
C     -0.700706    0.226850   -2.251318
C     -1.648318    0.475932   -3.268911
C     -2.476775    1.557778   -3.424445
O     -3.240170    1.398504   -4.550009
C     -2.893778    0.202094   -5.117159
C     -1.920676   -0.394227   -4.361494
C     -1.309790   -1.612799   -4.604364
C     -0.352246   -1.887971   -3.596055
C     -0.044470   -1.031278   -2.468971
C      0.928548   -1.425508   -1.541720
C      1.204324   -0.577610   -0.463629
H      3.627363   -0.446451    2.790919
H      3.385360    1.621563    4.233979
H      2.021003    3.955573    4.447126
H     -0.557847    3.487393    0.704128
H     -0.924502    2.015022   -1.022400
H     -2.652452    2.471772   -2.875796
H     -3.424052   -0.054659   -6.023141
H     -1.513738   -2.276100   -5.432468
H      0.194880   -2.829625   -3.686353
H      1.467205   -2.362185   -1.638796
