46

C     -0.596276   -0.256110    5.773264
C     -0.685985    1.189837    6.176179
C     -0.388494    1.958088    5.120521
C     -0.332554    3.393795    5.007423
C     -0.000809    3.918556    3.810744
C      0.294854    3.077919    2.644022
C      0.269362    1.722705    2.691439
C      0.551968    0.970587    1.467145
C     -0.403564    0.768194    0.466962
C     -0.126438    0.017935   -0.718092
C     -1.080321   -0.192406   -1.733542
C     -2.376335    0.261131   -1.764160
O     -2.983619   -0.147368   -2.912751
C     -2.068154   -0.868868   -3.622603
C     -0.877047   -0.928302   -2.941384
C      0.316712   -1.561416   -3.305026
C      0.567161   -2.293715   -4.475687
N     -0.184380   -2.625463   -5.580292
C      0.553878   -3.376029   -6.460411
C      1.808840   -3.537220   -5.921545
C      1.821784   -2.861892   -4.680055
N      2.837885   -2.750388   -3.802033
C      2.556909   -2.034899   -2.682268
C      1.351179   -1.401166   -2.325360
C      1.131163   -0.628057   -1.059551
C      2.120008   -0.418414   -0.012820
N      3.383037   -0.882434   -0.009484
S      4.111827   -0.386074    1.385414
N      2.878167    0.454688    2.084258
C      1.824207    0.383298    1.251859
C     -0.087802    1.115915    3.966448
C     -0.205603   -0.172116    4.322973
H      0.166842   -0.780259    6.356083
H     -1.561173   -0.757810    5.891611
H     -0.945517    1.535535    7.164447
H     -0.547247    4.014868    5.868369
H      0.060658    4.994308    3.677781
H      0.546849    3.607279    1.728729
H     -1.392433    1.200873    0.616117
H     -2.998724    0.848414   -1.103549
H     -2.444527   -1.245790   -4.559751
H     -1.144664   -2.361872   -5.736625
H      0.123716   -3.728034   -7.388635
H      2.633563   -4.078974   -6.363112
H      3.424441   -1.992816   -2.030708
H     -0.039657   -1.028931    3.689021
