46

C      2.249414    7.829736    0.795907
C      1.851050    6.435465    0.413377
C      0.715652    5.842738    0.973753
C      0.327453    4.554068    0.593312
C      1.055978    3.830458   -0.363668
C      0.645840    2.475351   -0.762567
C      0.398616    2.156897   -2.087982
C      0.006176    0.863523   -2.438863
C      0.487712    1.451220    0.184337
C      0.089476    0.116680   -0.131387
C     -0.160625   -0.186679   -1.494459
C     -0.564861   -1.510346   -1.875113
C     -0.823724   -1.872838   -3.227287
C     -1.219609   -3.152276   -3.617917
C     -1.386364   -4.136558   -2.663434
C     -1.778482   -5.530059   -3.052195
C     -1.122858   -3.814082   -1.326847
C     -0.717217   -2.518452   -0.887640
C     -0.463024   -2.213223    0.492011
C     -0.597639   -3.181821    1.528748
C     -0.354889   -2.905330    2.873242
C      0.035643   -1.637076    3.237143
C      0.177812   -0.661066    2.252125
C     -0.060901   -0.902997    0.867988
C      2.184630    4.441719   -0.931259
C      2.575861    5.729778   -0.551643
H      1.755925    8.553243    0.139761
H      3.333640    7.961808    0.716903
H      1.971285    8.044822    1.833026
H      0.121799    6.379492    1.710126
H     -0.564250    4.120583    1.042122
H      0.494409    2.911522   -2.865536
H     -0.172089    0.702824   -3.497739
H      0.702647    1.725529    1.213558
H     -0.718782   -1.152367   -4.032717
H     -1.393686   -3.360722   -4.670580
H     -2.416279   -5.982684   -2.285666
H     -2.346369   -5.532299   -3.988605
H     -0.884762   -6.148176   -3.181778
H     -1.245511   -4.622760   -0.612129
H     -0.902338   -4.200770    1.310794
H     -0.472877   -3.683031    3.622371
H      0.231546   -1.396840    4.278255
H      0.488821    0.316493    2.607883
H      2.777787    3.910297   -1.672889
H      3.453833    6.174912   -1.014281
