39

Si     1.191116   -2.503558   -1.971653
C      1.622094   -2.429326   -3.828490
C      1.259687   -1.248022   -4.373490
C      0.645055   -0.319597   -3.466164
C      0.497665   -0.754140   -2.116653
C     -0.047647    0.162191   -1.263288
S     -0.404198    1.601285   -2.154320
C      0.178932    0.961430   -3.654710
C      0.119023    1.727969   -4.869625
C     -0.324363    1.314047   -6.113120
N     -0.256091    2.249861   -7.129366
C      0.231514    3.369505   -6.643824
S      0.635693    3.363809   -4.978827
C     -0.342121    0.119118    0.157083
N      0.175144    1.098706    0.955738
C     -0.071766    1.108075    2.303840
C     -0.829998    0.196379    3.053849
C     -1.040784    0.299928    4.496325
C     -0.857031   -0.785235    5.363322
C     -1.053120   -0.636268    6.735840
C     -1.427059    0.606095    7.214821
N     -1.613822    1.682823    6.425417
C     -1.422356    1.502604    5.096093
C     -1.381226   -0.839826    2.250594
N     -2.157198   -1.855904    2.672116
S     -2.547318   -2.761942    1.343497
N     -1.737683   -1.933841    0.161794
C     -1.134915   -0.887742    0.756912
H      2.418769   -2.593354   -1.142900
H      0.184506   -3.563285   -1.720884
H      2.102192   -3.260163   -4.320174
H      1.435880   -1.009592   -5.416370
H     -0.717209    0.329400   -6.337292
H      0.373838    4.250452   -7.255992
H      0.415062    1.944998    2.808602
H     -0.558181   -1.758619    4.979856
H     -0.916810   -1.472278    7.412764
H     -1.591652    0.772712    8.275510
H     -1.602386    2.397500    4.504113
