29

C     -2.478919    1.131509    3.687442
C     -1.341629    1.258007    2.703461
C     -1.659560    1.028886    1.262177
C     -0.640865    1.095655    0.382981
N     -0.840840    0.913975   -0.985097
C     -0.175005   -0.009591   -1.829993
C      0.798466   -0.915366   -1.391357
C      1.437989   -1.778111   -2.289815
C      1.121555   -1.741784   -3.645638
C      0.169265   -0.834893   -4.091247
O     -0.171358   -0.753023   -5.409702
C     -0.469323    0.026075   -3.202092
N      0.637825    1.450417    0.887617
N      1.813621    1.671282    0.233942
C      2.640388    1.979260    1.228677
N      2.100047    1.983485    2.473467
C      0.840879    1.667007    2.262438
N     -0.167985    1.551869    3.172664
H     -3.420611    0.891560    3.187412
H     -2.247741    0.338605    4.404790
H     -2.596091    2.076444    4.226070
H     -2.676517    0.794886    0.979096
H     -1.813101    0.994810   -1.273790
H      1.077543   -0.977794   -0.344244
H      2.189503   -2.473457   -1.924345
H      1.627271   -2.415126   -4.329749
H      0.393020   -1.363332   -5.912309
H     -1.192471    0.737124   -3.591973
H      3.680482    2.210907    1.037092
