41

Si     1.935333   -0.181932    6.603595
C      3.512443   -0.710161    5.786378
C      3.397653   -0.700224    4.444847
C      4.484414   -1.070130    3.573404
C      4.315421   -1.042037    2.245349
C      3.030885   -0.637917    1.640139
C      2.955113   -0.642350    0.203573
N      3.929735   -0.975531   -0.665295
S      3.302963   -0.803260   -2.189470
N      1.763240   -0.297523   -1.836657
C      1.682707   -0.244387   -0.495129
C      0.574653    0.130095    0.284220
C      0.686215    0.123111    1.727064
Si    -1.087966    0.710419    2.385849
C     -1.722421    0.880551    0.641677
C     -2.859784    1.234066   -0.075159
C     -2.522389    1.097798   -1.420659
N     -1.204603    0.670096   -1.489500
C     -0.715958    0.537487   -0.224623
C     -3.308835    1.328522   -2.595041
C     -2.982576    1.197056   -3.932595
C     -4.122316    1.549735   -4.697755
C     -5.118413    1.888409   -3.812199
N     -4.616582    1.751405   -2.544089
C      1.872358   -0.246959    2.415296
C      2.072806   -0.281615    3.904439
C      1.196378    0.022832    4.886042
H      1.279680   -1.274134    7.361585
H      2.054448    1.114181    7.312985
H      4.383178   -0.980715    6.362766
H      5.434758   -1.369535    4.003220
H      5.134466   -1.320757    1.588846
H     -1.734557   -0.377181    3.165141
H     -0.966021    1.998210    3.117281
H     -3.816830    1.551592    0.315664
H     -0.686150    0.485198   -2.338517
H     -2.027112    0.881090   -4.329281
H     -4.204218    1.555013   -5.776850
H     -6.137339    2.213942   -3.971921
H     -5.128930    1.933286   -1.692894
H      0.178735    0.352235    4.841957
