46

Si    -2.880253    0.374995   -3.096780
C     -1.235628    1.242714   -3.084781
C     -0.494711    0.889812   -2.012916
C      0.910282    1.252645   -1.832119
C      1.613134    0.631656   -0.861877
C      0.964055   -0.290603    0.077729
C      1.665445   -1.002709    1.050655
C      3.023890   -1.072268    1.235859
O      3.308807   -1.894957    2.287212
C      2.120461   -2.348023    2.783453
C      1.077975   -1.828457    2.055725
C     -0.304082   -2.007509    2.278886
C     -0.840498   -2.819029    3.367786
C     -2.207611   -2.912570    3.672569
C     -2.928234   -2.080163    2.835890
C     -4.267438   -1.819738    2.951384
O     -4.618242   -0.856188    2.052813
C     -3.490014   -0.512293    1.362559
C     -2.426257   -1.294758    1.746212
C     -1.070946   -1.230069    1.296469
C     -0.449468   -0.516754    0.153136
C     -1.176320   -0.032529   -1.061017
C     -2.358066   -0.490834   -1.525860
C      1.641896    2.189816   -2.693820
C      2.512299    1.770735   -3.723942
C      3.204468    2.672714   -4.564997
C      3.085767    4.069032   -4.453449
C      2.221606    4.549061   -3.438874
N      1.971828    5.840537   -3.173901
S      0.902948    5.859306   -1.903442
N      0.710122    4.235473   -1.631330
C      1.476861    3.595096   -2.532107
H     -4.020000    1.297627   -2.879176
H     -3.018803   -0.561660   -4.237912
H     -0.936848    1.866062   -3.912292
H      2.665114    0.850991   -0.712449
H      3.885565   -0.642275    0.745509
H      2.204082   -3.004070    3.638005
H     -0.149299   -3.371214    4.003918
H     -2.602222   -3.491730    4.494772
H     -5.060160   -2.163637    3.600492
H     -3.624302    0.305422    0.669880
H     -2.982016   -1.266734   -1.115005
H      2.655123    0.701327   -3.886061
H      3.857953    2.265992   -5.337577
H      3.621534    4.748081   -5.106025
