49

C      2.169511    5.494294   -6.639071
C      1.739224    4.466132   -5.632982
C      0.762420    3.505481   -5.976649
C      0.313624    2.547924   -5.052470
C      0.835976    2.552914   -3.767710
C      1.797078    3.530199   -3.451877
C      2.260934    4.487436   -4.336404
C      0.523897    1.665375   -2.645103
C     -0.364923    0.604065   -2.594316
C     -0.504486   -0.113908   -1.393248
C      0.234211    0.208938   -0.226698
C      0.059315   -0.566385    1.014943
C      0.135552   -1.968261    1.002384
C     -0.037905   -2.638514    2.199488
C     -0.282572   -1.992985    3.420605
C     -0.360998   -0.614465    3.453126
C     -0.190265    0.089963    2.249889
C     -0.410624   -2.985862    4.465798
C     -0.249090   -4.264543    3.907987
C     -0.313541   -5.430865    4.646150
C     -0.563379   -5.311289    6.018717
C     -0.714538   -4.028685    6.596653
C     -0.644110   -2.860428    5.822930
C     -0.611484   -6.536230    6.885895
C     -0.008614   -4.093715    2.458925
O      0.172334   -4.971040    1.641685
C      1.133726    1.282285   -0.282792
C      1.247062    1.969119   -1.479606
S      2.302311    3.345133   -1.776923
O      1.808829    4.472093   -1.015437
O      3.674108    2.887004   -1.752870
H      2.153149    5.078295   -7.651869
H      1.500155    6.359053   -6.599103
H      3.193166    5.829843   -6.442235
H      0.342721    3.500141   -6.982090
H     -0.435092    1.822610   -5.356827
H      3.000375    5.219579   -4.026974
H     -0.956133    0.317223   -3.459025
H     -1.216569   -0.939182   -1.367568
H      0.335705   -2.527443    0.093249
H     -0.551873   -0.077807    4.376920
H     -0.265180    1.177305    2.275556
H     -0.173942   -6.394139    4.165835
H     -0.890214   -3.938602    7.668049
H     -0.767368   -1.888832    6.290194
H     -0.956464   -7.405556    6.316281
H      0.383975   -6.748919    7.287459
H     -1.308536   -6.396128    7.718695
H      1.737243    1.569825    0.573226
