24

N     -1.589030   -2.979070    6.528206
C     -1.489369   -2.588758    5.439668
C     -1.368937   -2.105872    4.095118
C     -0.148886   -2.202760    3.419886
C     -0.033614   -1.730779    2.107550
C     -2.471619   -1.535383    3.452221
C     -2.353465   -1.064170    2.139690
C     -1.133542   -1.156468    1.452642
C     -1.001241   -0.666957    0.081883
N     -2.004798   -0.106974   -0.609033
N     -1.422112    0.178495   -1.792393
C     -1.979669    0.775006   -2.916855
C     -1.228652    0.975741   -4.008186
C      0.185624    0.517702   -3.893767
N      0.733895   -0.041688   -2.858580
C     -0.082120   -0.220113   -1.775778
N      0.185457   -0.749814   -0.604437
H      0.720077   -2.643972    3.904825
H      0.924763   -1.814102    1.595860
H     -3.428878   -1.452309    3.963703
H     -3.223235   -0.622979    1.655415
H     -3.022544    1.052086   -2.843774
H     -1.577715    1.430740   -4.923780
H      0.801695    0.684175   -4.793688
