41

C     -6.335896   -0.642114    0.898418
C     -6.438400   -2.075368    1.340264
C     -5.205897   -2.578821    1.484425
C     -4.790334   -3.901375    1.876461
C     -3.467750   -4.153902    1.931033
C     -2.464078   -3.131357    1.611582
C     -2.786830   -1.864042    1.245590
C     -1.715077   -0.960068    0.965278
C     -0.782975   -1.007218   -0.054526
C      0.161498    0.071845   -0.024667
C      1.245713    0.371581   -0.884010
C      2.056773    1.499710   -0.665386
C      3.134114    1.798137   -1.518501
C      3.950289    2.903981   -1.325984
N      4.965421    3.134017   -2.178343
C      5.741467    4.218982   -1.963302
C      5.554439    5.105633   -0.920557
C      4.505219    4.864845   -0.042422
C      3.678368    3.749222   -0.233085
C      2.605161    3.465984    0.629923
C      1.788455    2.345025    0.423572
C      0.715827    2.060819    1.284885
C     -0.084200    0.925789    1.047544
S     -1.435532    0.399957    1.972701
C     -4.212524   -1.556023    1.166441
C     -4.849858   -0.427399    0.817357
H     -6.807528   -0.497196   -0.077955
H     -6.790974    0.029675    1.632111
H     -7.366146   -2.600578    1.504856
H     -5.530528   -4.655604    2.114125
H     -3.104017   -5.134794    2.221498
H     -1.426672   -3.445074    1.699697
H     -0.779273   -1.787565   -0.806487
H      1.446004   -0.288687   -1.725246
H      3.351842    1.150652   -2.365735
H      6.546227    4.358898   -2.679529
H      6.207776    5.961206   -0.794619
H      4.335934    5.546957    0.786645
H      2.406625    4.128091    1.470765
H      0.495667    2.705521    2.131931
H     -4.386642    0.500961    0.520616
