31

C     -0.560054   -0.096659   -1.671760
C     -0.159351    0.396949   -0.276734
C     -0.815898    0.939016    0.849419
C      0.077574    1.214125    1.890078
S      1.716576    0.787140    1.430920
C      1.202044    0.279298   -0.058346
C      1.787037   -0.266854   -1.219302
N      3.003435   -0.628775   -1.676153
C      2.788087   -1.104030   -2.958685
C      3.476211   -1.646906   -4.072057
C      2.494240   -1.875322   -5.018564
N      1.263707   -1.499611   -4.531453
C      1.448785   -1.025725   -3.264607
C      0.796673   -0.488302   -2.151806
C     -0.179988    1.770922    3.168941
C      0.347698    1.347468    4.336513
C     -0.081185    2.084762    5.517177
C     -0.946078    3.088730    5.283958
Si    -1.337984    3.231561    3.448355
H     -1.238316   -0.951108   -1.606363
H     -0.991358    0.712838   -2.265972
H     -1.883045    1.112154    0.912442
H      3.904819   -0.582416   -1.219525
H      4.533905   -1.845046   -4.174995
H      2.571193   -2.282455   -6.018392
H      0.365335   -1.549579   -4.994803
H      1.035943    0.516405    4.435991
H      0.286559    1.819919    6.501041
H     -1.384069    3.753842    6.011026
H     -0.837275    4.506912    2.876507
H     -2.758877    2.908631    3.157746
