29

N      2.778598   -4.290428   -0.462237
C      2.806093   -2.961955   -0.242702
N      3.081149   -2.060406   -1.158931
N      3.052367   -0.774462   -0.656994
C      2.735934   -0.752878    0.618990
S      2.600216    0.727988    1.534496
C      2.325503    1.932692    0.202446
C      0.956486    1.836782   -0.367371
C      0.520751    1.147348   -1.476068
O     -0.816122    1.359035   -1.613165
C     -1.138375    2.183397   -0.566297
C     -2.537306    2.587194   -0.448381
C     -3.514519    2.160456   -1.361754
C     -4.847463    2.563180   -1.223738
C     -5.214001    3.396718   -0.169764
Cl    -6.852561    3.891538   -0.000266
C     -4.260522    3.831082    0.747192
C     -2.928909    3.427113    0.606919
N     -0.111677    2.501431    0.200561
S      2.491211   -2.299379    1.310829
H      2.920110   -4.901279    0.333801
H      3.248952   -4.604629   -1.304855
H      3.087557    1.826495   -0.576947
H      2.460410    2.931073    0.633226
H      0.988587    0.506111   -2.210056
H     -3.247072    1.508609   -2.191409
H     -5.589742    2.222406   -1.940796
H     -4.541958    4.481164    1.571308
H     -2.190181    3.771587    1.329795
