33

Si    -1.148592   -2.869373    5.455867
C     -1.791079   -3.925315    4.045813
C     -1.460233   -3.387863    2.856115
C     -1.810056   -3.964531    1.559429
C     -1.433466   -3.352123    0.417300
C     -0.690865   -2.136701    0.522238
O     -0.226047   -1.379583   -0.516886
C      0.438545   -0.290432   -0.005267
C      0.399796   -0.349249    1.380033
C     -0.314187   -1.516430    1.707758
C     -0.684478   -2.118226    2.945780
C     -0.425250   -1.689946    4.194628
C      1.041040    0.692604   -0.856375
C      1.067140    0.730756   -2.249671
C      1.769840    1.879424   -2.584870
Si     2.384768    2.880833   -4.028883
C      3.141598    4.123464   -2.714259
C      2.898451    3.729800   -1.443297
C      2.162797    2.526129   -1.440987
N      1.719873    1.804896   -0.376960
H     -0.101823   -3.560138    6.246334
H     -2.243095   -2.251501    6.242007
H     -2.345579   -4.832054    4.227271
H     -2.375422   -4.889676    1.532277
H     -1.673784   -3.748574   -0.561321
H      0.833751    0.363092    2.064726
H      0.114980   -0.805030    4.487978
H      0.618473   -0.005503   -2.904425
H      3.479678    2.257380   -4.814835
H      1.332858    3.569469   -4.819141
H      3.674897    4.994921   -3.056761
H      3.220453    4.259568   -0.556720
H      1.857488    2.033248    0.596901
