35

Si    -0.931058   -0.454360   -3.955495
C      0.773594    0.097820   -3.460433
C      0.838373    0.385134   -2.146115
C      1.977889    0.835506   -1.419868
C      3.282046    1.086008   -1.877399
O      3.901100    1.000035   -3.091224
C      5.184446    1.386398   -2.861146
C      5.414384    1.716928   -1.548928
C      4.155934    1.511511   -0.930789
S      3.388672    1.627458    0.619313
C      1.893923    1.093069   -0.059159
C      0.653782    0.927139    0.727474
C      0.552116    1.180098    2.088665
N     -0.583142    1.028794    2.811819
C     -1.695993    0.602992    2.170783
C     -1.695489    0.322688    0.806539
C     -0.515772    0.482244    0.066484
C     -0.438519    0.201479   -1.398391
C     -1.461527   -0.227383   -2.169702
C     -2.909922    0.452917    3.000973
C     -4.184763    0.041100    2.637027
C     -5.105350    0.021934    3.726652
C     -4.515301    0.419649    4.901837
S     -2.868696    0.811147    4.689248
H     -0.981452   -1.876801   -4.369111
H     -1.610592    0.504534   -4.858653
H      1.575144    0.161654   -4.180077
H      5.820672    1.374578   -3.736288
H      6.339046    2.052607   -1.104461
H      1.397353    1.524426    2.677298
H     -2.602179   -0.016235    0.323224
H     -2.479058   -0.438089   -1.887066
H     -4.463292   -0.239766    1.629577
H     -6.145798   -0.268883    3.649785
H     -4.970249    0.500496    5.879404
