37

C     -0.665788    7.161404    3.972635
C     -1.646419    7.857532    3.307392
S     -2.344828    6.934538    2.053352
C     -1.339680    5.573348    2.379266
C     -0.490187    5.850043    3.439294
C     -1.437091    4.350888    1.603489
C     -2.272664    4.081003    0.533338
C     -2.098993    2.766142    0.006619
C     -1.133472    2.049837    0.682744
S     -0.450741    2.983725    1.943786
C     -0.709730    0.702041    0.426751
S      0.943871    0.240455    0.267837
C      0.571710   -1.417990   -0.031556
C      1.589555   -2.405496   -0.274125
S      2.940108   -2.576254    0.790797
C      3.610487   -3.867876   -0.113984
C      2.832207   -4.169832   -1.200138
N      3.148966   -5.158292   -2.081829
C      2.215200   -5.240226   -3.068482
C      1.078663   -4.429526   -3.171384
N      0.738233   -3.440893   -2.300146
C      1.660189   -3.330220   -1.297074
C     -0.779249   -1.543056    0.000261
C     -1.670116   -2.640504   -0.151479
C     -3.012163   -2.274596   -0.011461
S     -3.324797   -0.581452    0.324839
C     -1.523461   -0.387900    0.257394
H     -0.099858    7.568789    4.801401
H     -1.988059    8.865865    3.496759
H      0.236046    5.146306    3.828037
H     -2.986218    4.789681    0.130581
H     -2.658534    2.375557   -0.835155
H      4.534412   -4.338088    0.189897
H      2.406200   -6.007545   -3.813762
H      0.386241   -4.565850   -3.997715
H     -1.367576   -3.660066   -0.358216
H     -3.870225   -2.928631   -0.086875
