37

Si    -3.391138   -3.042386    3.428262
C     -4.514029   -2.710242    1.978674
C     -3.925201   -1.872142    1.105093
C     -4.594115   -1.294642   -0.045044
C     -3.954392   -0.354150   -0.764649
C     -2.583655    0.023005   -0.446360
Si    -1.726182    1.429518   -1.356888
C     -0.168557    1.095611   -0.356207
C     -0.440690   -0.036002    0.500809
C     -1.829399   -0.544594    0.537636
C     -2.531381   -1.457095    1.444406
C     -2.130099   -1.901683    2.651936
C      0.742743   -0.503386    1.068228
C      0.992135   -1.687766    1.715726
N      2.323514   -1.703872    2.072580
C      2.957311   -0.583348    1.586799
C      2.009964    0.157172    0.921455
C      2.229412    1.337589    0.164602
C      3.452321    2.022227    0.008475
C      3.493977    3.134204   -0.816243
C      2.326147    3.508999   -1.455205
N      1.139470    2.866205   -1.326784
C      1.062715    1.789282   -0.519257
H     -3.930726   -2.510003    4.702852
H     -2.920843   -4.448424    3.478095
H     -5.519494   -3.096942    1.938179
H     -5.609787   -1.591649   -0.279728
H     -4.452576    0.109187   -1.611430
H     -2.380522    2.730671   -1.053063
H     -1.597619    1.115204   -2.805631
H     -1.229465   -1.651153    3.183615
H      0.374124   -2.543940    1.939667
H      2.779104   -2.458923    2.568828
H      4.020891   -0.452099    1.729394
H      4.349335    1.687417    0.518159
H      4.411742    3.691121   -0.964203
H      2.307808    4.370991   -2.116979
