40

C     -4.178870    1.192841    3.918868
C     -3.476074    1.704804    5.146239
C     -2.196160    1.958224    4.844668
C     -1.130088    2.458776    5.675780
C      0.083291    2.624473    5.111711
C      0.337573    2.312429    3.699858
C     -0.624333    1.839836    2.869041
C     -0.271593    1.553199    1.470151
C     -0.229053    2.584005    0.528934
C      0.097762    2.300122   -0.794738
C      0.382087    0.970179   -1.178759
C      0.722665    0.605428   -2.511921
S      0.869488    1.637231   -3.924337
C      1.271586    0.338895   -4.886128
C      1.585105    0.202017   -6.252844
C      1.827379   -1.113025   -6.457252
C      1.675177   -1.932941   -5.169382
C      1.307349   -0.852043   -4.214168
C      0.994952   -0.737015   -2.837546
C      0.921146   -1.693570   -1.820450
N      0.598145   -1.354115   -0.552600
C      0.338974   -0.077894   -0.239357
C      0.010538    0.237760    1.071114
C     -1.949884    1.646322    3.439905
C     -3.087248    1.202054    2.884385
H     -4.560903    0.180210    4.078163
H     -4.999374    1.856332    3.630252
H     -3.944013    1.839742    6.108670
H     -1.316093    2.687953    6.717804
H      0.918451    2.997165    5.696674
H      1.352932    2.477189    3.348160
H     -0.453989    3.607101    0.822150
H      0.126124    3.113424   -1.514665
H      1.621069    0.998155   -6.981374
H      2.097114   -1.551402   -7.407189
H      2.619640   -2.413624   -4.899995
H      0.879895   -2.676226   -5.272779
H      1.116804   -2.746647   -1.992525
H     -0.027731   -0.565904    1.804117
H     -3.216566    0.893814    1.858268
