36

C     -2.354665    7.497789    0.285933
C     -1.123055    7.197193   -0.261004
N     -0.675696    5.926262   -0.392011
C     -1.499288    4.931419    0.043308
C     -0.989544    3.545139   -0.109599
C     -1.715502    2.409217    0.289232
C     -1.203148    1.110911    0.129996
C      0.057637    0.890804   -0.435002
C      0.594486   -0.457923   -0.602539
C      1.773354   -0.972656   -1.112866
C      1.696831   -2.384791   -0.995574
C      2.521602   -3.472233   -1.310264
C      2.062815   -4.753918   -1.025387
O      2.729957   -5.915599   -1.263512
C      1.926180   -6.925135   -0.836361
C      0.748578   -6.427192   -0.325652
C      0.826362   -5.015238   -0.443509
C      0.002622   -3.926800   -0.129345
C      0.462452   -2.645509   -0.414671
O     -0.204078   -1.485672   -0.176726
C      0.791976    2.009535   -0.836673
C      0.277428    3.305060   -0.676275
C     -2.739405    5.264875    0.592229
N     -3.194195    6.539927    0.726469
H     -2.699924    8.520209    0.384663
H     -0.454044    7.973989   -0.612800
H     -2.702071    2.492978    0.736487
H     -1.811131    0.269246    0.457631
H      2.594132   -0.401892   -1.522241
H      3.495955   -3.328580   -1.765199
H      2.325576   -7.922026   -0.961410
H     -0.065017   -7.010410    0.081163
H     -0.971722   -4.070144    0.325544
H      1.777601    1.900904   -1.282060
H      0.891691    4.142767   -1.006555
H     -3.434354    4.517163    0.954257
