45

Si    -2.925205    5.825411   -1.242097
C     -1.722619    6.576758   -0.043110
C     -0.872129    5.652021    0.440955
C      0.135107    5.959649    1.429005
C      0.927691    4.988572    1.904359
C      0.808490    3.602815    1.416265
C      1.707619    2.628615    1.898669
N      2.708522    2.830853    2.785041
S      3.528917    1.392306    2.942720
N      2.631359    0.437313    1.917889
C      1.674208    1.238700    1.479439
C      0.666266    0.829936    0.524067
C     -0.123445    1.839955   -0.040963
S     -0.970194    1.137849   -1.386110
C     -0.395232   -0.453023   -1.111364
C     -0.698720   -1.593004   -1.906772
C     -0.249004   -2.875459   -1.562069
C     -0.543292   -4.047890   -2.360916
C      0.168558   -4.500275   -3.412863
C     -0.376330   -5.682745   -4.062009
C     -1.522553   -6.150765   -3.534478
Si    -2.083301   -5.104369   -2.071204
C      0.467450   -2.906418   -0.360920
C      0.950144   -4.078450    0.187615
S      1.671944   -3.833091    1.727057
C      1.364021   -2.142114    1.671329
C      0.799486   -1.796488    0.476091
C      0.399830   -0.469678    0.025021
C     -0.129155    3.195516    0.423222
C     -1.050652    4.265898   -0.081294
C     -2.089866    4.173081   -0.939234
H     -4.321138    5.847393   -0.743172
H     -2.729411    6.308043   -2.630130
H     -1.763248    7.623492    0.213906
H      0.232448    6.978760    1.789148
H      1.681438    5.215336    2.652552
H     -1.305232   -1.464562   -2.802734
H      1.079832   -4.039547   -3.775556
H      0.125444   -6.132152   -4.910331
H     -2.087664   -7.008323   -3.863675
H     -3.344355   -4.376570   -2.360383
H     -2.029014   -5.865322   -0.798172
H      0.902020   -5.084453   -0.206155
H      1.611925   -1.552924    2.538075
H     -2.494342    3.318278   -1.446720
