42

C     -0.069472    0.739661    3.949607
C     -0.807553    0.161004    2.726670
C     -1.943025   -0.745712    3.241189
C      0.194943   -0.641802    1.884553
C     -0.358443   -1.125316    0.561723
O      0.111239   -2.135613    0.032259
C     -1.411158   -0.297881   -0.095151
C     -1.803708   -0.551001   -1.355936
N     -1.389944   -1.558320   -2.212794
C     -1.109620   -1.299526   -3.625741
C      0.384921   -1.031182   -3.872378
C      0.957972    0.140800   -3.104954
C      0.507736    1.447187   -3.342004
C      1.020791    2.515905   -2.604453
C      1.993649    2.284913   -1.639846
O      2.469025    3.357328   -0.944732
C      2.462003    0.999196   -1.394510
C      1.942768   -0.070481   -2.126851
C     -1.992854    0.892086    0.588741
O     -2.915891    1.542182    0.097967
C     -1.368200    1.325652    1.896480
H     -0.747544    1.324678    4.581333
H      0.358605   -0.057398    4.567648
H      0.750616    1.399042    3.643618
H     -2.518479   -1.197095    2.426930
H     -1.545019   -1.563916    3.852623
H     -2.644968   -0.179245    3.864002
H      1.079986   -0.035520    1.654716
H      0.533414   -1.519488    2.448940
H     -2.527028    0.106729   -1.839352
H     -0.683875   -2.161092   -1.768190
H     -1.404215   -2.186203   -4.198321
H     -1.721393   -0.468077   -3.995944
H      0.547639   -0.853835   -4.943336
H      0.950917   -1.939563   -3.627715
H     -0.253243    1.642063   -4.093646
H      0.663005    3.525900   -2.785796
H      3.217969    3.065263   -0.399846
H      3.220026    0.807422   -0.642136
H      2.299773   -1.077351   -1.917363
H     -2.132751    1.859143    2.475235
H     -0.577683    2.046124    1.650452
