39

C      2.758333   -3.422742    4.076778
C      2.757943   -2.268829    3.076514
C      2.623034   -0.912572    3.803325
C      2.723610    0.271972    2.828175
C      1.905679    0.013276    1.601844
S      1.524450    1.245449    0.497532
C      0.666853    0.162794   -0.526045
C      0.046449    0.684637   -1.739442
O      0.272495    1.799564   -2.206441
N     -0.853606   -0.172656   -2.346310
C     -1.656748    0.245173   -3.471720
C     -3.037162    0.652044   -3.020693
C     -4.111438   -0.248612   -3.097254
C     -5.380493    0.130004   -2.655802
C     -5.574654    1.403161   -2.132840
F     -6.793347    1.761997   -1.708384
C     -4.523623    2.306711   -2.041155
C     -3.254314    1.931349   -2.482454
C      0.701548   -1.126494   -0.017740
C      1.418091   -1.217626    1.215641
C      1.627635   -2.453851    2.038621
H      1.824429   -3.455320    4.647862
H      3.585439   -3.320327    4.786941
H      2.875070   -4.382065    3.561923
H      3.721353   -2.277156    2.548115
H      3.399381   -0.810673    4.570959
H      1.656021   -0.874123    4.322699
H      2.397770    1.187945    3.334115
H      3.771370    0.409891    2.533724
H     -1.167269   -0.982357   -1.834726
H     -1.717327   -0.606571   -4.158281
H     -1.178034    1.065479   -4.017961
H     -3.967628   -1.247532   -3.502779
H     -6.217803   -0.557860   -2.714754
H     -4.695615    3.294216   -1.625296
H     -2.428922    2.638340   -2.402177
H      0.246539   -1.980289   -0.503083
H      0.684320   -2.689224    2.548142
H      1.864568   -3.301904    1.384929
