38

O      3.016656    1.057383   -5.614260
C      2.591693    0.589376   -4.553392
C      2.096890    1.590109   -3.559954
C      1.247078    1.484100   -2.529676
N      0.573792    0.402088   -2.034199
C     -0.290378    0.313688   -0.927734
C     -0.729137    1.419550   -0.188833
C     -1.605535    1.266650    0.893156
C     -2.050948   -0.003653    1.255233
O     -2.934314   -0.227418    2.286235
C     -2.708673    0.450786    3.464109
C     -1.482426    0.338831    4.130931
C     -1.285339    0.999959    5.344289
C     -2.314209    1.759610    5.901385
C     -3.545383    1.854930    5.249293
C     -3.746270    1.194971    4.034716
Cl    -5.283233    1.336417    3.262727
C     -1.657315   -1.111925    0.512077
C     -0.782461   -0.951907   -0.566696
C      2.596824   -0.838577   -4.304402
C      2.853835   -1.885280   -5.174222
C      2.775624   -3.080712   -4.421885
C      2.488099   -2.699197   -3.134459
O      2.375275   -1.348401   -3.053198
H      2.472300    2.585841   -3.790670
H      1.030361    2.406871   -1.997708
H      0.859545   -0.496958   -2.418149
H     -0.412368    2.426019   -0.440595
H     -1.941067    2.148277    1.431903
H     -0.681534   -0.264830    3.711825
H     -0.330405    0.917174    5.858079
H     -2.160148    2.272413    6.847952
H     -4.344809    2.441993    5.694069
H     -2.028253   -2.100105    0.769168
H     -0.488456   -1.833369   -1.131355
H      3.078117   -1.779877   -6.227799
H      2.922898   -4.092786   -4.772572
H      2.343517   -3.238697   -2.208191
