43

C     -1.506733    0.767619   -6.914850
O     -0.496519    1.199256   -6.015434
C     -0.656272    0.901727   -4.685213
C     -1.737250    0.191860   -4.158241
C     -1.812783   -0.062930   -2.785294
C     -0.813820    0.387760   -1.917256
N     -0.964793    0.076923   -0.548816
C     -0.196143    0.527659    0.515165
O      0.705796    1.350746    0.433437
N     -0.596006   -0.092649    1.686656
C     -0.148780    0.158859    3.003484
C      0.656182    1.242633    3.353154
C      1.037088    1.439432    4.683975
C      0.616004    0.558879    5.685163
C      0.979936    0.812608    7.118912
C     -0.206480   -0.521369    5.341257
C     -0.568409   -0.737552    4.006287
O     -1.364949   -1.777657    3.587938
C     -1.220275   -2.976174    4.333860
F     -1.717231   -3.979794    3.566529
F     -2.007857   -2.905027    5.434368
C      0.272309    1.090437   -2.444555
C      0.357326    1.356837   -3.819665
O      1.391236    2.041665   -4.413131
C      2.376381    2.610702   -3.561424
H     -2.471088    1.228688   -6.677375
H     -1.221693    1.093693   -7.919792
H     -1.582342   -0.324614   -6.929357
H     -2.539157   -0.178334   -4.787648
H     -2.668442   -0.618286   -2.409754
H     -1.803878   -0.423717   -0.298967
H     -1.185864   -0.909066    1.600835
H      0.992307    1.964740    2.615230
H      1.657101    2.299276    4.931275
H      1.948315    1.318551    7.192918
H      0.217018    1.437207    7.593598
H      1.062828   -0.128669    7.672386
H     -0.573620   -1.165626    6.135924
H     -0.185488   -3.215783    4.604075
H      1.063067    1.422942   -1.785082
H      2.940853    1.832261   -3.037890
H      3.081049    3.163902   -4.189902
H      1.931322    3.321971   -2.857708
