45

C      1.326486   -0.074431    3.927238
C      0.268581   -1.062598    3.545742
C     -0.191246   -0.779004    2.315957
C     -1.107407   -1.522406    1.471187
C     -1.159968   -1.120887    0.179669
C     -0.429953    0.046796   -0.388978
C      0.224343    0.917454    0.448146
C      0.702043    2.220530   -0.097866
C      0.900018    3.405090    0.636890
C      0.527334    3.701583    1.928645
N      0.912513    4.997572    2.200410
C      1.461224    5.572819    1.078223
C      1.424909    4.621359    0.092117
C      1.793402    4.838389   -1.223940
C      1.477467    3.709029   -2.008982
C      0.920055    2.474488   -1.493644
C      0.392771    1.435425   -2.409001
C      0.466791    1.455840   -3.757365
Si    -0.447708    0.020954   -4.516173
C     -0.872963   -0.535016   -2.790332
C     -0.366070    0.290070   -1.846497
C      0.483416    0.415087    1.804887
C      1.401054    0.796117    2.711140
C     -1.938170   -2.626916    1.856950
C     -2.529738   -2.913740    3.085379
C     -3.261967   -4.117572    2.957690
C     -3.098226   -4.515709    1.657458
O     -2.319079   -3.634596    0.987714
H      1.035760    0.500459    4.811096
H      2.281981   -0.574892    4.109821
H      0.000492   -1.912687    4.152771
H     -1.823949   -1.640984   -0.504644
H      0.009979    3.130686    2.686607
H      0.766042    5.470345    3.082707
H      1.783458    6.605092    1.084824
H      2.180622    5.760347   -1.632170
H      1.635972    3.810513   -3.081171
H      0.938177    2.185819   -4.392876
H     -1.638231    0.452174   -5.287903
H      0.456933   -0.922843   -5.215759
H     -1.418753   -1.452871   -2.649725
H      2.125800    1.586899    2.593008
H     -2.447801   -2.303681    3.974170
H     -3.840617   -4.624512    3.716422
H     -3.455265   -5.356521    1.079611
