29

C     -1.454199   -2.133597    1.335954
C     -0.897373   -0.721531    1.077970
C     -2.042660    0.146558    0.513562
C     -0.383131   -0.133590    2.400143
C      0.369470    1.160135    2.196114
O      0.424454    2.024122    3.069212
C      1.119509    1.355660    0.934077
C      1.103918    0.447882   -0.057718
N      1.873000    0.638726   -1.202518
C      1.749273   -0.069877   -2.480628
C      0.667786    0.536664   -3.365024
O      0.191310    1.658722   -3.289002
O      0.272129   -0.300361   -4.348379
C      0.264499   -0.813764    0.060839
H     -1.825673   -2.587557    0.410324
H     -0.683252   -2.796260    1.745063
H     -2.283030   -2.107150    2.052376
H     -1.722124    1.170132    0.295312
H     -2.434661   -0.278838   -0.417449
H     -2.874970    0.207557    1.224089
H     -1.221462    0.059289    3.080345
H      0.300842   -0.830468    2.900052
H      1.706387    2.264931    0.883062
H      2.169366    1.608047   -1.328146
H      2.698800    0.018056   -3.018993
H      1.551040   -1.134053   -2.321579
H     -0.402866    0.216928   -4.837567
H      0.940810   -1.635111    0.333698
H     -0.168329   -1.073800   -0.912519
