26

C     -1.062657   -4.169383   -1.132111
C     -0.676139   -2.853985   -1.338821
C     -0.611385   -2.072408   -0.187283
N     -0.279092   -0.749646   -0.023119
C     -0.328735   -0.387332    1.304881
C     -0.067603    0.828908    1.948672
C      0.399989    2.003485    1.250467
C      1.458055    2.002211    0.360774
S      1.718503    3.588459   -0.241208
C      0.436836    4.150976    0.749148
N     -0.167103    3.243859    1.484581
C     -0.309313    0.836038    3.317591
N     -0.719177   -0.233793    4.040666
C     -0.937533   -1.408008    3.401021
C     -0.757421   -1.514031    2.014459
C     -0.917944   -2.580272    1.074000
C     -1.302173   -3.923843    1.174157
N     -1.367847   -4.706962    0.068967
H     -1.141611   -4.857423   -1.970384
H     -0.445654   -2.473020   -2.325011
H     -0.046536   -0.122595   -0.780082
H      2.087815    1.180460    0.050756
H      0.148563    5.194212    0.765862
H     -0.162857    1.744266    3.898908
H     -1.265282   -2.235962    4.019871
H     -1.560560   -4.398674    2.113817
