45

Si    -2.481422    2.388487    4.484478
C     -2.216186    4.242779    4.549290
C     -1.492120    4.704885    3.515678
C     -1.092601    3.643900    2.598639
C     -1.483245    2.297042    2.867054
C     -1.133950    1.161091    2.010107
C     -1.455959   -0.216355    2.162001
C     -2.178778   -0.830890    3.156698
O     -2.259628   -2.175103    2.931457
C     -1.581986   -2.434836    1.780675
C     -1.072564   -1.267600    1.271017
C     -0.314330   -1.125577    0.093077
C      0.058701   -2.172583   -0.786325
C      0.817481   -1.894977   -1.920513
C      1.154271   -0.558205   -2.092597
N      0.796134    0.460305   -1.261864
C      0.063857    0.218988   -0.153783
C     -0.334275    1.290623    0.767210
C      0.010464    2.665316    0.581796
C      0.743869    3.236312   -0.432779
O      0.851315    4.586308   -0.249069
C      0.182347    4.895988    0.897604
C     -0.347405    3.755507    1.440186
C      1.209474   -2.941870   -2.867361
C      0.301759   -3.915466   -3.360361
C      0.651728   -4.940534   -4.272335
C      1.948117   -5.098126   -4.783420
C      2.910549   -4.163930   -4.335957
N      4.200728   -4.143570   -4.703245
S      4.899071   -2.871774   -3.899572
N      3.598125   -2.285848   -3.055457
C      2.544553   -3.064079   -3.362626
H     -1.807383    1.677023    5.598258
H     -3.905295    2.023508    4.282689
H     -2.623887    4.832935    5.355859
H     -1.226150    5.741691    3.364942
H     -2.687060   -0.515874    4.053933
H     -1.564132   -3.473457    1.482298
H     -0.236061   -3.195076   -0.567643
H      1.741915   -0.232343   -2.948971
H      1.240016    2.863001   -1.317439
H      0.185929    5.941877    1.168562
H     -0.739773   -3.873503   -3.034629
H     -0.123113   -5.637321   -4.594542
H      2.204550   -5.886275   -5.481159
