34

C     -2.940896   -1.728206    5.393518
C     -2.636228   -0.569445    6.093930
C     -1.756815    0.373556    5.556991
C     -1.184293    0.129443    4.293307
S     -0.086962    1.134206    3.440128
C      0.030199    0.066602    2.097369
C      0.890160    0.380383    0.924158
C      1.652326    1.558882    0.843737
C      2.464432    1.854913   -0.264534
C      2.527127    0.950423   -1.338190
C      1.771234   -0.218932   -1.259003
C      0.956688   -0.523848   -0.155927
N      2.001216   -0.927245   -2.416869
C      2.871602   -0.253391   -3.224738
N      3.288941   -0.694149   -4.426007
C      4.150093    0.159155   -5.026484
C      4.588568    1.369935   -4.505078
C      4.122450    1.777068   -3.254125
C      3.224469    0.927873   -2.584708
C     -0.770990   -1.042465    2.320291
C     -1.474697   -1.025503    3.571938
C     -2.369310   -1.964652    4.139639
H     -3.626590   -2.456498    5.819617
H     -3.084233   -0.391592    7.068756
H     -1.519235    1.280052    6.106267
H      1.639401    2.291694    1.647207
H      3.037120    2.777684   -0.285298
H      0.393407   -1.450473   -0.155794
H      1.596648   -1.818477   -2.657255
H      4.503964   -0.172486   -6.000215
H      5.282967    1.988148   -5.063722
H      4.442792    2.715793   -2.815502
H     -0.868292   -1.860680    1.619171
H     -2.615059   -2.875650    3.599892
