40

Si     0.954557   -5.413342   -5.452814
C      0.272312   -3.911144   -6.343001
C      0.082603   -2.891266   -5.483945
C     -0.437228   -1.584620   -5.864610
C     -0.595241   -0.619553   -4.937119
C     -0.239193   -0.919627   -3.583454
S     -0.395819    0.225980   -2.317496
C      0.193807   -0.882199   -1.198479
C      0.522255   -2.117388   -1.709534
N      1.012136   -3.111572   -0.914472
C      1.191173   -2.908416    0.416355
C      0.900101   -1.707007    1.064992
C      0.968810   -1.189060    2.383227
C      0.511297    0.125898    2.349546
O      0.165939    0.424006    1.049900
C      0.404183   -0.676180    0.304826
C      0.383717    1.082295    3.421793
S      0.826136    0.679454    5.054803
C      0.408869    2.232974    5.669893
C     -0.047023    3.010319    4.652316
Si    -0.682740    4.774954    4.483045
C     -0.917955    4.447637    2.620358
C     -0.549870    3.190798    2.286630
C     -0.070557    2.382992    3.374090
C      0.265805   -2.134502   -3.113206
C      0.449313   -3.190448   -4.071395
C      0.915715   -4.436623   -3.865628
H     -0.004097   -6.544645   -5.456887
H      2.331696   -5.742443   -5.893346
H      0.078838   -3.924783   -7.403509
H     -0.693347   -1.404029   -6.903070
H     -0.981046    0.358704   -5.203975
H      1.585866   -3.762502    0.959549
H      1.313732   -1.714784    3.262780
H      0.525944    2.463060    6.720263
H      0.351731    5.812125    4.720920
H     -1.983761    5.012550    5.156342
H     -1.302027    5.212371    1.964629
H     -0.610562    2.815206    1.271306
H      1.237423   -4.863534   -2.928712
