25

C      1.691034    1.773802    2.690840
C      0.399186    1.339779    2.450086
C     -0.011522    0.987363    1.150108
C     -1.361465    0.492257    0.976447
N     -2.460363    1.223965    1.370421
C     -3.445333    0.403510    1.107871
O     -3.048078   -0.788283    0.597720
N     -1.655233   -0.739168    0.526815
C      0.880595    1.104635    0.039089
C      2.185180    1.533463    0.332358
C      2.598929    1.864361    1.641042
S      3.180934    1.595646   -1.065832
C      1.914712    1.121052   -2.081486
N      2.129860    1.009876   -3.410152
C      1.047319    0.648377   -4.120478
C     -0.203923    0.407098   -3.591713
C     -0.379569    0.534387   -2.215137
C      0.722083    0.896438   -1.400560
H      2.000546    2.035708    3.699767
H     -0.300521    1.260141    3.280831
H     -4.506237    0.547898    1.244688
H      3.617844    2.195574    1.828223
H      1.218099    0.555343   -5.190430
H     -1.031462    0.124902   -4.233392
H     -1.363501    0.356678   -1.795549
