41

C      0.163081    2.180954   -4.476355
O      1.138182    2.527943   -3.492021
C      0.545687    2.563043   -2.235569
C      0.006649    3.779013   -1.769831
C     -0.059049    5.076662   -2.389086
C     -0.672693    6.019693   -1.601207
S     -1.175706    5.368022   -0.111430
C     -0.570238    3.796113   -0.499570
C     -0.603583    2.634998    0.287535
O     -1.164379    2.676733    1.558277
C     -2.539922    2.297544    1.491237
C      0.005730    1.441767   -0.148437
C      0.162975    0.171555    0.509483
C      0.829214   -0.768731   -0.248147
C      1.129873   -2.129313    0.115032
S      0.000953   -3.095082    1.007206
C      1.022628   -4.478793    1.014499
C      2.191895   -4.207821    0.366118
S      3.629872   -5.241768    0.067181
C      4.315357   -3.835619   -0.737368
C      5.656295   -3.891709   -1.325610
C      6.452330   -5.172876   -1.235603
O      6.155832   -2.918418   -1.894953
C      3.480975   -2.700764   -0.754618
C      2.223042   -2.902054   -0.120041
S      1.258496   -0.121805   -1.767688
C      0.574853    1.422296   -1.419268
H     -0.615061    2.948084   -4.550080
H     -0.287712    1.204272   -4.270591
H      0.671425    2.121555   -5.443309
H      0.340585    5.295376   -3.372124
H     -0.844776    7.062793   -1.828771
H     -2.958350    2.380188    2.498727
H     -2.648312    1.257831    1.164495
H     -3.109607    2.961814    0.832727
H     -0.198216   -0.019034    1.513622
H      0.735593   -5.409307    1.484725
H      6.637763   -5.433785   -0.190348
H      5.930599   -5.982848   -1.752082
H      7.421604   -5.030907   -1.724374
H      3.802019   -1.772181   -1.215065
