40

Si     3.028492    1.638253   -3.794610
C      1.418953    1.957853   -2.932327
C      1.044952    0.904510   -2.178472
C     -0.223974    0.748834   -1.538104
C     -1.284751    1.690318   -1.433889
C     -2.396034    1.181984   -0.777987
S     -2.110236   -0.446193   -0.307861
C     -0.534139   -0.466204   -0.961021
C      0.387734   -1.615714   -0.873053
C      0.030075   -2.825396   -0.297996
N      0.872126   -3.862876   -0.113796
C      2.158841   -3.692891   -0.434040
C      3.014472   -4.747422   -0.144781
C      4.387702   -4.670188   -0.366215
C      4.925426   -3.499818   -0.870126
C      4.079706   -2.432447   -1.179231
C      2.669045   -2.506958   -1.016012
C      1.722954   -1.479680   -1.339485
C      2.012455   -0.235931   -2.143247
C      3.039721   -0.059078   -3.004674
C     -3.669361    1.870607   -0.494193
C     -4.731667    1.304381    0.207616
C     -5.886936    2.057998    0.413352
C     -5.954983    3.352424   -0.083018
C     -4.858922    3.843338   -0.768306
N     -3.727388    3.136982   -0.982633
H      2.890537    1.567707   -5.268641
H      4.132735    2.490778   -3.293180
H      0.851406    2.854013   -3.126237
H     -1.256957    2.701968   -1.821477
H     -0.977784   -3.020765    0.056020
H      2.597759   -5.656071    0.285262
H      5.028426   -5.511818   -0.118602
H      5.998933   -3.405210   -1.011544
H      4.554920   -1.513340   -1.504120
H      3.811700   -0.750797   -3.291904
H     -4.685727    0.294843    0.599750
H     -6.725735    1.633898    0.958278
H     -6.838957    3.963334    0.060555
H     -4.859377    4.849736   -1.177106
