36

C     -4.154204   -0.189109    1.538613
C     -5.391061   -0.413394    2.413437
C     -5.190180   -1.414148    3.298908
C     -3.884422   -1.933068    3.123871
C     -3.149978   -2.914947    3.708839
S     -1.601693   -2.984660    2.960417
C     -1.946359   -1.681373    1.851121
C     -3.228042   -1.231223    2.082166
C     -0.958399   -1.235769    0.887724
C      0.318361   -1.729796    0.692361
C      1.035289   -1.063831   -0.342727
N      2.303127   -1.367055   -0.720586
C      2.814467   -0.621880   -1.723933
C      2.175160    0.421793   -2.407265
C      0.866581    0.709150   -1.992148
C      0.183939    1.739727   -2.639608
N      0.705526    2.479448   -3.643183
C      1.956083    2.213011   -4.047900
C      2.478800    2.976074   -5.074958
C      3.763304    2.733137   -5.520844
N      4.555905    1.778151   -5.006091
C      4.033042    1.038968   -4.002351
C      2.742595    1.197763   -3.470789
C      0.288756   -0.051535   -0.938119
S     -1.265281    0.047893   -0.207897
H     -3.763547    0.821804    1.684485
H     -4.395436   -0.364665    0.486553
H     -6.298779    0.164066    2.320379
H     -5.905188   -1.768964    4.027733
H     -3.413225   -3.586784    4.513363
H      0.748919   -2.543801    1.261356
H      3.830905   -0.915898   -1.976884
H     -0.831925    2.016789   -2.370330
H      1.882342    3.761007   -5.527317
H      4.197210    3.318628   -6.326403
H      4.718857    0.284683   -3.627577
