34

Si    -1.991246    3.555966   -1.358933
C     -3.570688    3.612019   -0.304650
C     -3.660512    2.531511    0.496645
C     -2.549347    1.619474    0.351978
Si    -2.234044    0.032099    1.220050
C     -0.588360   -0.171273    0.220903
C     -0.508871    0.997350   -0.633848
C     -1.593008    1.960409   -0.542877
C      0.636362    0.983645   -1.416713
C      1.065505    1.900844   -2.341311
O      2.251174    1.496517   -2.884795
C      2.583676    0.309085   -2.302221
C      1.623879   -0.054913   -1.389068
C      1.599702   -1.217844   -0.576458
C      2.653179   -2.210844   -0.625688
C      2.665892   -3.370245    0.158932
C      1.549423   -3.444414    0.982107
C      1.385506   -4.514681    1.828031
S     -0.058207   -4.376179    2.732109
C     -0.458324   -2.879125    1.984250
C      0.473842   -2.468010    1.057991
C      0.406939   -1.255967    0.274759
H     -2.301060    3.426741   -2.804149
H     -1.058737    4.655404   -1.008232
H     -4.267177    4.431489   -0.383493
H     -4.480715    2.358088    1.182562
H     -3.205246   -1.039907    0.882132
H     -1.966360    0.185448    2.673134
H      0.697111    2.838399   -2.728137
H      3.511566   -0.122506   -2.648855
H      3.491999   -2.065779   -1.305241
H      3.461366   -4.102140    0.109490
H      2.029724   -5.371932    1.969063
H     -1.376388   -2.423271    2.307375
