36

C      4.992558   -5.038936   -1.726474
O      5.160210   -3.933553   -0.847606
C      4.023436   -3.292234   -0.438210
C      2.713647   -3.657759   -0.759138
C      1.635337   -2.913003   -0.270400
C      1.876423   -1.793800    0.523822
O      0.832842   -1.042413    1.081665
C     -0.123566   -0.523085    0.203044
O     -0.131927   -0.649484   -1.013328
C     -1.148209    0.240116    1.036616
O     -2.217746    0.822394    0.307240
C     -2.025609    2.065118   -0.228730
C     -0.801358    2.711012   -0.395361
C     -0.751570    3.988440   -0.966124
C     -1.923158    4.636839   -1.371984
C     -1.861006    5.989145   -2.017154
C     -3.145542    3.974883   -1.227224
C     -3.192959    2.699732   -0.658700
C      3.174523   -1.430396    0.869683
C      4.245412   -2.179817    0.380853
H      4.506802   -4.733134   -2.659065
H      5.987200   -5.419142   -1.978626
H      4.440358   -5.849254   -1.239216
H      2.495725   -4.516316   -1.385375
H      0.620994   -3.209029   -0.522241
H     -0.643390    0.982454    1.666558
H     -1.607564   -0.493094    1.709899
H      0.138621    2.248102   -0.117397
H      0.214384    4.470957   -1.100013
H     -2.774609    6.559201   -1.818185
H     -1.022447    6.572030   -1.621831
H     -1.739040    5.882373   -3.099394
H     -4.069365    4.443234   -1.558373
H     -4.150525    2.195987   -0.551974
H      3.358625   -0.573913    1.510510
H      5.263332   -1.897981    0.639095
