39

C     -3.834138    3.110381    0.653048
O     -2.746124    2.870403   -0.230039
C     -2.279083    1.586556   -0.298364
C     -1.215683    1.398924   -1.184666
C     -0.638611    0.136844   -1.350053
C     -2.771957    0.494388    0.416186
C     -2.194141   -0.770299    0.253145
C     -1.109243   -0.952986   -0.611996
C     -0.526147   -2.282164   -0.777706
N     -1.168121   -3.277993   -1.370214
C     -0.299141   -4.328782   -1.408456
C      0.887879   -3.999471   -0.806221
N      0.742866   -2.685714   -0.349330
C      1.761785   -2.039587    0.392347
C      1.643864   -0.696134    0.978756
C      0.875888   -0.495608    2.133304
C      0.771893    0.776894    2.697717
C      1.443894    1.853415    2.120878
C      2.226134    1.659583    0.983434
C      2.331083    0.388424    0.416118
C      2.912231   -2.710307    0.626062
C      3.086373   -4.057828    0.115874
C      2.110640   -4.679856   -0.567308
H     -3.557328    2.891066    1.689610
H     -4.084291    4.174042    0.593820
H     -4.720607    2.542887    0.351032
H     -0.833918    2.242778   -1.753496
H      0.178811    0.013149   -2.055501
H     -3.605783    0.587095    1.103157
H     -2.595734   -1.618170    0.803986
H     -0.574857   -5.268520   -1.868583
H      0.346573   -1.326296    2.594365
H      0.162530    0.929047    3.584516
H      1.356049    2.845139    2.557039
H      2.749622    2.499855    0.535053
H      2.941458    0.252091   -0.473555
H      3.726743   -2.283270    1.204688
H      4.030801   -4.556266    0.312881
H      2.245493   -5.691464   -0.937420
