46

C     -4.992431   -3.794997   -5.457732
N     -4.590450   -2.717101   -6.092779
C     -3.589960   -2.108477   -5.358719
C     -3.246905   -2.724388   -4.168342
S     -4.208792   -4.135844   -3.972269
C     -2.265832   -2.349134   -3.170123
C     -1.259621   -3.189514   -2.664812
C     -0.268314   -2.785348   -1.668911
C      0.709362   -3.677018   -1.150651
C      0.803913   -5.004102   -1.516268
S      2.072400   -5.820872   -0.706076
C      2.512933   -4.404627    0.147842
C      1.713281   -3.327031   -0.171244
C      1.885198   -2.031990    0.390580
C      2.900343   -1.699103    1.340314
C      3.063817   -0.401237    1.824461
C      4.102412   -0.087506    2.786424
C      4.362330    1.197794    3.321223
C      3.481233    2.126006    2.791373
C      3.452278    3.463779    3.087269
N      2.428321    4.014408    2.345789
C      1.809863    3.041203    1.586365
C      2.450248    1.853405    1.846400
C      2.170699    0.574483    1.305350
C      1.158253    0.240581    0.365542
C      0.943655   -1.072185   -0.106668
C     -0.138186   -1.454377   -1.067379
C     -1.232436   -0.675239   -1.582138
C     -1.646451    0.583778   -1.210690
O     -2.747231    0.967583   -1.920254
C     -3.084800   -0.064362   -2.736960
C     -2.203396   -1.101061   -2.560675
H     -5.772892   -4.436483   -5.845892
H     -3.135301   -1.203745   -5.745526
H     -1.224101   -4.204235   -3.057959
H      0.206809   -5.573327   -2.212823
H      3.344357   -4.465094    0.834321
H      3.579129   -2.468477    1.697959
H      4.744220   -0.900686    3.131114
H      5.145008    1.401125    4.037103
H      4.050859    4.078773    3.745264
H      2.167058    4.991796    2.357023
H      0.981063    3.299563    0.942453
H      0.574069    1.066291   -0.010724
H     -1.337171    1.320135   -0.487016
H     -3.969303    0.094717   -3.338380
