41

C     -5.091594   -1.874682   -2.360826
C     -5.719197   -2.952952   -1.524134
C     -4.951041   -3.177084   -0.450464
C     -5.150251   -4.087379    0.647192
C     -4.227998   -4.094490    1.628869
C     -3.045825   -3.226528    1.594173
C     -2.787247   -2.350868    0.588406
C     -1.566196   -1.572466    0.624137
C     -1.192429   -0.699450    1.598251
C      0.072668   -0.204431    1.219421
O      0.970015    0.667792    1.731341
C      1.996194    0.658807    0.813839
C      1.737757   -0.194077   -0.229738
S      3.037569   -0.205225   -1.392251
C      3.942423    0.958868   -0.453382
C      5.220702    1.544158   -0.706616
C      5.800964    2.484946    0.184935
C      4.994492    2.748747    1.288417
C      5.272694    3.607740    2.323938
O      4.237731    3.605589    3.232079
C      3.280512    2.731482    2.771869
C      3.736644    2.215851    1.601740
C      3.218602    1.288345    0.675385
C      0.489299   -0.752259    0.038024
C     -0.497818   -1.691992   -0.496858
C     -3.778015   -2.306072   -0.486578
C     -3.850911   -1.533060   -1.581726
H     -5.753225   -1.007511   -2.444777
H     -4.839899   -2.245525   -3.358710
H     -6.650344   -3.445424   -1.756980
H     -6.022210   -4.729370    0.671484
H     -4.333639   -4.758419    2.481418
H     -2.357241   -3.340199    2.428139
H     -1.732561   -0.424263    2.490464
H      5.765049    1.262196   -1.606300
H      6.768460    2.935321    0.004348
H      6.097493    4.260981    2.571391
H      2.397417    2.621147    3.384720
H     -0.882723   -1.368437   -1.466604
H     -0.107648   -2.712134   -0.557695
H     -3.151532   -0.766200   -1.874365
