40

Si     4.049397    1.691079   -4.363522
C      2.790310    0.458083   -4.968946
C      1.952569    0.099458   -3.978055
C      0.869456   -0.817394   -4.064838
C      0.323311   -1.606391   -5.094584
C     -0.734697   -2.283254   -4.519128
O     -0.868844   -1.956256   -3.200234
C      0.117368   -1.060820   -2.938245
C      0.286597   -0.482913   -1.612813
C     -0.556124   -0.820063   -0.545016
C     -0.307263   -0.207576    0.687686
N     -0.959434   -0.343534    1.891166
C     -0.381740    0.449806    2.855915
C      0.669194    1.110234    2.248726
C      0.725830    0.704846    0.885063
C      1.567375    1.035949   -0.198145
C      1.354416    0.444886   -1.455104
C      2.210437    0.750134   -2.652293
C      3.257713    1.603507   -2.668447
C     -0.864370    0.499878    4.201150
S     -0.181939    1.477460    5.463544
C     -1.325803    0.936434    6.660442
C     -2.156316    0.057493    6.062158
C     -3.263760   -0.754010    6.352464
C     -3.564472   -1.400172    5.146073
O     -2.728748   -1.063004    4.096276
C     -1.906013   -0.178010    4.732096
H      3.887575    3.023693   -4.992629
H      5.427774    1.145331   -4.370310
H      2.780452    0.111836   -5.989687
H      0.645157   -1.683119   -6.122644
H     -1.455117   -2.997598   -4.892291
H     -1.368890   -1.528194   -0.670940
H     -1.757573   -0.944466    2.052399
H      1.335605    1.815476    2.728107
H      2.369398    1.747089   -0.036522
H      3.651538    2.194698   -1.858742
H     -1.292482    1.300608    7.677201
H     -3.790763   -0.876076    7.287807
H     -4.331816   -2.116587    4.882052
