21

C     -4.161232   -0.412174   -0.659647
N     -3.244823   -1.307063   -0.349874
C     -2.249846   -0.590548    0.258518
N     -1.081249   -1.056820    0.762295
C     -0.286235   -0.105569    1.309452
N      0.939470   -0.276537    1.889122
C      1.307700    0.936166    2.266991
C      2.643621    1.305277    2.988307
N      3.608942    0.388857    3.318845
C      4.514175    1.141195    3.888544
O      4.186287    2.457612    3.938265
N      2.930150    2.571297    3.334292
N      0.358244    1.878363    1.948473
C     -0.668166    1.232606    1.335913
N     -1.818353    1.741289    0.848094
C     -2.577225    0.761721    0.314272
N     -3.800377    0.853650   -0.276869
H     -5.099860   -0.618573   -1.157915
H      5.464928    0.856893    4.313727
H      0.419774    2.867389    2.138362
H     -4.331453    1.701997   -0.403247
