45

C      1.959482    5.380321    1.355869
C      2.314298    6.862269    1.515004
C      3.506955    7.145359    0.944768
C      4.046364    5.961911    0.384136
C      5.185060    5.633938   -0.281308
S      5.167592    3.948775   -0.644591
C      3.609640    3.687948    0.103483
C      3.027843    2.400288    0.114262
Si     1.285946    2.039752   -0.502429
C      1.578797    0.231996   -0.045140
C      2.820049    0.065081    0.458271
C      3.628035    1.275090    0.551388
C      0.649694   -0.816432   -0.244934
S     -1.075853   -0.604204   -0.005420
C     -1.474424   -2.240960   -0.404706
C     -2.813889   -2.753925   -0.393453
S     -3.209662   -4.180908    0.497757
C     -4.865617   -4.105328    0.063259
C     -5.119503   -3.027107   -0.742924
N     -6.360043   -2.748842   -1.231288
C     -6.331094   -1.630147   -2.006159
C     -5.189978   -0.865432   -2.275594
N     -3.941665   -1.126126   -1.801596
C     -3.937322   -2.240908   -1.011494
C     -0.324229   -2.887283   -0.695814
N     -0.166497   -4.191755   -1.075493
C      1.212951   -4.266989   -1.244282
C      1.835397   -3.031140   -0.972749
C      0.813450   -2.114796   -0.605466
C      3.153591    4.886660    0.603688
H      1.037034    5.269301    0.779806
H      1.865394    4.896034    2.331632
H      1.680272    7.575145    2.020405
H      3.983480    8.115002    0.919086
H      6.018735    6.257024   -0.570834
H      0.256477    2.701800    0.344409
H      1.140301    2.252987   -1.966774
H      3.227183   -0.883053    0.788652
H      4.632915    1.232147    0.954664
H     -5.567499   -4.847188    0.415578
H     -7.289994   -1.344695   -2.430010
H     -5.260872    0.014027   -2.909674
H     -0.887117   -4.894086   -1.192426
H      1.652912   -5.206256   -1.554477
H      2.897371   -2.838092   -1.046497
