40

C      0.325385   -4.789380    3.297287
O     -0.501490   -3.651305    3.091308
C     -0.458650   -3.071259    1.853622
C     -1.297105   -1.965789    1.697784
C     -1.352672   -1.277415    0.483598
C     -0.569285   -1.689517   -0.601310
C     -0.604011   -0.932456   -1.906893
N      0.367552    0.153862   -1.877724
C      0.149620    1.442458   -1.399121
C     -1.043558    2.060447   -1.398966
C     -1.215321    3.443031   -0.894932
O     -2.330428    3.960436   -0.932598
C     -0.002236    4.199436   -0.404495
C      1.081895    3.268650    0.160138
C      2.364552    4.081642    0.412525
C      0.627090    2.663933    1.505553
C      1.383806    2.152766   -0.864021
C      0.278640   -2.794086   -0.437560
C      0.331002   -3.482721    0.780305
H      1.384323   -4.532515    3.189006
H      0.170102   -5.133999    4.324210
H      0.045706   -5.607805    2.625667
H     -1.911688   -1.634827    2.531591
H     -2.007230   -0.413498    0.393458
H     -1.619386   -0.582837   -2.123337
H     -0.343598   -1.610631   -2.728424
H      1.304853   -0.191395   -1.677056
H     -1.945111    1.602961   -1.784106
H      0.381762    4.777131   -1.254365
H     -0.327989    4.910254    0.364457
H      3.163537    3.446282    0.811016
H      2.186403    4.887707    1.133240
H      2.733882    4.539188   -0.512195
H     -0.287446    2.070197    1.409795
H      0.430416    3.451293    2.242228
H      1.400725    2.008494    1.921752
H      1.927092    2.565657   -1.725010
H      2.056475    1.421519   -0.395416
H      0.907408   -3.128308   -1.260195
H      1.000273   -4.332977    0.856497
