49

Si     1.499638   -2.968611   -1.518153
C      0.971357   -4.760584   -1.089428
C     -0.037641   -4.778436   -0.191003
C     -0.486759   -3.486845    0.243305
C      0.171718   -2.363630   -0.326629
C     -0.284261   -1.150398    0.093444
S     -1.567448   -1.386403    1.221576
C     -1.474400   -3.117488    1.127657
C     -2.366424   -3.932160    1.950448
C     -3.756372   -3.795374    1.895623
C     -4.565874   -4.604656    2.690958
C     -3.957299   -5.533510    3.519057
N     -2.620682   -5.701533    3.601902
C     -1.860219   -4.895962    2.819691
C      0.136042    0.204509   -0.269006
C     -0.582768    0.852181   -1.281892
C     -0.217176    2.125131   -1.700603
C      0.878817    2.778314   -1.120155
C      1.207063    4.105199   -1.617464
S      0.386391    5.543840   -1.117432
C      1.354017    6.574563   -2.140242
C      2.230567    5.788676   -2.801834
C      3.267974    5.875261   -3.743244
C      3.701037    4.554760   -3.925371
O      3.015827    3.621683   -3.168023
C      2.148266    4.446549   -2.518883
C      1.628224    2.144758   -0.088188
C      2.742614    2.759117    0.536552
C      3.467016    2.129530    1.548667
C      3.096603    0.864494    1.970702
C      2.004278    0.232549    1.377716
C      1.250112    0.842668    0.344311
H      1.219601   -2.676065   -2.946066
H      2.890325   -2.723343   -1.062716
H      1.458277   -5.603979   -1.551864
H     -0.484844   -5.697826    0.170436
H     -4.216014   -3.067160    1.232196
H     -5.645801   -4.512778    2.662580
H     -4.546836   -6.186429    4.156431
H     -0.789245   -5.052089    2.922590
H     -1.432227    0.361266   -1.752600
H     -0.788998    2.606776   -2.491370
H      1.199065    7.643558   -2.168927
H      3.667824    6.749110   -4.236917
H      4.473996    4.126107   -4.550054
H      3.065676    3.754073    0.236681
H      4.315811    2.632675    2.003764
H      3.650303    0.365934    2.761661
H      1.739757   -0.757869    1.744025
