40

C     -4.322545    2.170791    1.267639
C     -3.674479    0.909695    1.683122
N     -3.191972    0.619123    2.878763
N     -2.685419   -0.663313    2.837684
C     -2.870599   -1.117778    1.620894
S     -2.347354   -2.645802    1.005605
C     -0.547639   -2.394146    1.115262
C     -0.056587   -1.327123    0.130746
O     -0.760992   -0.816972   -0.743640
N      1.310712   -1.057093    0.282554
C      1.744135   -0.195194    1.351229
C      0.778846    0.508084    2.107070
C      1.131997    1.353786    3.162074
C      2.466210    1.530883    3.484887
C      3.438653    0.865246    2.744506
C      3.090527    0.010958    1.682679
S      4.438309   -0.779349    0.855996
C      3.631469   -1.440057   -0.571493
C      4.484211   -1.941008   -1.573762
C      3.973870   -2.548600   -2.716063
C      2.601936   -2.666638   -2.864610
C      1.749164   -2.169960   -1.873674
C      2.238550   -1.535799   -0.709501
N     -3.476506   -0.161391    0.847730
N     -3.722524   -0.202224   -0.564466
H     -5.401164    2.022389    1.151608
H     -4.169571    2.944643    2.025040
H     -3.914578    2.539943    0.322026
H     -0.273319   -2.140043    2.143598
H     -0.060576   -3.340570    0.857004
H     -0.283145    0.444097    1.885291
H      0.356704    1.871738    3.722598
H      2.750895    2.185611    4.304944
H      4.484862    1.018676    3.005306
H      5.563961   -1.870959   -1.461868
H      4.645343   -2.931140   -3.480806
H      2.186971   -3.139209   -3.753522
H      0.682799   -2.282248   -2.058407
H     -2.813778   -0.168887   -1.045470
H     -4.095933   -1.115972   -0.825971
