37

C      1.410846    5.575419    2.959710
C      2.522376    4.807588    2.628304
C      2.352811    3.534469    2.075578
C      1.073242    2.994267    1.845143
C     -0.032719    3.797765    2.181016
C      0.133070    5.072689    2.733838
C      0.919550    1.642223    1.265416
C     -0.159132    0.807572    1.559254
C     -0.233680   -0.455582    0.968696
C      0.766540   -0.876784    0.091777
C      1.810813    0.013623   -0.135621
N      1.908734    1.243889    0.424830
C      0.724156   -2.196803   -0.549240
C      1.171843   -3.308193    0.189032
C      1.165801   -4.584876   -0.362879
C      0.710611   -4.773084   -1.664357
C      0.253264   -3.691733   -2.431451
C     -0.204414   -3.903222   -3.742810
C     -0.666727   -2.844249   -4.522295
C     -0.679178   -1.558344   -3.999701
C     -0.227310   -1.331449   -2.697695
C      0.252198   -2.383975   -1.881411
H      1.540631    6.566296    3.386410
H      3.523955    5.195177    2.794463
H      3.237299    2.951861    1.820683
H     -1.046198    3.448975    1.997599
H     -0.738115    5.674034    2.980613
H     -0.935191    1.114882    2.252044
H     -1.074954   -1.106357    1.195519
H      2.630195   -0.245242   -0.802242
H      1.534906   -3.175785    1.207102
H      1.517258   -5.432453    0.219617
H      0.714730   -5.779157   -2.079039
H     -0.204525   -4.903747   -4.170547
H     -1.016961   -3.025554   -5.534905
H     -1.039709   -0.727637   -4.600850
H     -0.256692   -0.309748   -2.323507
