41

C     -3.351246    1.117672   -2.095656
O     -2.005950    0.666896   -2.173410
C     -1.133141    1.374386   -2.955301
C     -1.487601    2.501531   -3.706168
C     -0.537093    3.166826   -4.483347
C      0.775945    2.712898   -4.519986
C      1.141754    1.591893   -3.777203
C      0.198630    0.907733   -2.983016
C      0.662764   -0.316431   -2.200351
C      0.447717   -0.207130   -0.711241
C      0.146702   -1.295740    0.026578
C     -0.106437   -1.168893    1.482012
C      0.670063   -0.342253    2.307416
C      0.409315   -0.248813    3.679072
C     -0.621785   -0.995192    4.258510
C     -0.921070   -0.872823    5.722785
C     -1.400091   -1.821597    3.442307
C     -1.137709   -1.913662    2.071772
N      0.075872   -2.560669   -0.525687
C      0.014203   -2.584563   -1.819223
N      0.074853   -3.771469   -2.512658
N      0.238648   -3.476617   -3.735819
N      0.345366   -2.102407   -3.865061
N     -0.023685   -1.509179   -2.661394
H     -3.406154    2.125757   -1.671940
H     -3.890442    0.444300   -1.422425
H     -3.839722    1.070975   -3.074368
H     -2.500904    2.889982   -3.709869
H     -0.825934    4.041114   -5.061699
H      1.514803    3.230443   -5.126921
H      2.174726    1.251013   -3.823654
H      1.745540   -0.438380   -2.348324
H      0.498660    0.781732   -0.269543
H      1.497347    0.229617    1.895428
H      1.024737    0.405209    4.292515
H     -1.643422   -0.068181    5.890947
H     -0.010448   -0.655662    6.290973
H     -1.333910   -1.807458    6.116811
H     -2.213312   -2.406919    3.864951
H     -1.747863   -2.574164    1.458455
H     -0.179014   -1.759569   -4.670495
