27

O      0.098742    1.669003   -1.654826
C      0.269132    1.334423   -0.492508
O     -0.301938    0.247501    0.091952
C     -1.190219   -0.466015   -0.770964
C     -1.744246   -1.639343   -0.000260
C     -1.262556   -2.931942   -0.278997
C     -1.747056   -4.037004    0.421597
C     -2.708297   -3.855585    1.407033
F     -3.170728   -4.917612    2.079108
C     -3.194793   -2.591447    1.709170
C     -2.712394   -1.484536    1.008583
Cl    -3.342703    0.067284    1.434053
C      1.143374    2.051128    0.494943
C      1.172165    1.700281    1.843783
C      2.004802    2.415878    2.701973
C      2.777502    3.453994    2.194902
C      2.687723    3.739072    0.842742
N      1.892429    3.065403   -0.014801
H     -0.642254   -0.818696   -1.653624
H     -2.005923    0.181284   -1.114677
H     -0.504271   -3.084587   -1.045538
H     -1.379794   -5.035918    0.206429
H     -3.942672   -2.482503    2.487972
H      0.560884    0.893583    2.234407
H      2.046841    2.165940    3.758727
H      3.434199    4.029735    2.838371
H      3.270579    4.542050    0.399395
