41

C     -1.323192    3.196457   -5.776713
O     -2.475933    2.644267   -5.300418
C     -2.156243    1.945195   -4.169133
C     -0.799917    1.972948   -3.950453
C     -0.286709    2.854783   -4.951173
C      1.004905    3.330191   -5.047511
C      1.748003    2.887049   -3.934994
C      1.258334    2.015032   -2.887442
C      2.097322    1.767093   -1.801664
C      1.693500    0.985832   -0.712558
C      0.466093    0.319249   -0.684962
C      0.161480   -0.470596    0.476126
C     -0.991472   -1.270643    0.649383
C     -1.249307   -2.057077    1.842309
C     -0.443827   -3.157410    2.223362
C     -0.669639   -3.932898    3.385526
C     -1.719979   -3.679265    4.281907
C     -2.561201   -2.586444    3.965241
N     -3.614151   -2.179172    4.690387
S     -4.251078   -0.867687    3.897101
N     -3.224308   -0.758099    2.600385
C     -2.327653   -1.752904    2.725392
C     -1.773114   -1.274305   -0.512934
C     -2.879750   -2.078950   -0.672891
S     -3.509958   -1.983787   -2.261191
C     -2.293276   -0.874030   -2.740673
C     -1.491892   -0.476301   -1.694442
C     -0.400491    0.451607   -1.820516
C     -0.049776    1.410620   -2.871065
H     -1.429909    3.815825   -6.655853
H     -3.008260    1.532187   -3.649788
H      1.389963    4.002871   -5.799625
H      2.772328    3.259741   -3.857461
H      3.086335    2.222068   -1.758161
H      2.389599    0.886478    0.120034
H      0.876265   -0.454879    1.303089
H      0.396327   -3.434433    1.583308
H      0.002466   -4.766324    3.593154
H     -1.882680   -4.280588    5.168278
H     -3.342319   -2.752245    0.035204
H     -2.241811   -0.607448   -3.784520
