44

Si     4.189305    2.049286    0.765794
C      2.642783    1.057568    1.079926
C      1.874615    0.949819   -0.021214
C      0.636793    0.241958   -0.162727
C      0.193065   -0.014255   -1.452733
O     -0.909720   -0.804947   -1.470244
C     -1.250310   -1.014243   -0.161866
C     -2.338998   -1.793641    0.267709
C     -2.618462   -1.892987    1.645592
C     -3.703987   -2.704303    2.167241
C     -3.669996   -3.802954    3.006224
N     -4.894886   -4.353532    3.333087
C     -5.844750   -3.674642    2.729117
S     -5.335379   -2.358236    1.755991
C     -1.772242   -1.120312    2.465904
C     -1.935888   -0.994352    3.831526
S     -0.805628    0.100975    4.534239
C     -0.084599    0.446437    3.010900
C     -0.668497   -0.315639    2.043207
C     -0.361901   -0.317305    0.643720
C      0.765326    0.479749   -2.679371
C      0.296645    0.292859   -3.977488
C     -0.779356   -0.426005   -4.429596
O     -0.864999   -0.324958   -5.793005
C      0.165693    0.470511   -6.214276
C      0.900971    0.871513   -5.131953
C      2.019862    1.693126   -5.140839
C      2.510298    1.891906   -3.822988
C      1.928262    1.317834   -2.629055
C      2.513470    1.532568   -1.260326
C      3.690644    2.153378   -1.028279
H      4.158836    3.369103    1.439223
H      5.423153    1.252922    0.964035
H      2.484136    0.619414    2.048208
H     -2.946788   -2.313519   -0.466993
H     -2.769398   -4.246998    3.414188
H     -6.891783   -3.927007    2.835294
H     -2.671375   -1.454067    4.477792
H      0.678332    1.203864    2.950541
H     -1.543761   -1.031662   -3.963661
H      0.217448    0.639270   -7.280415
H      2.474109    2.134314   -6.016907
H      3.389733    2.527580   -3.727947
H      4.358573    2.612023   -1.737825
