47

C      1.699179   -1.999743   -0.423879
C      2.894746   -2.058857    0.516203
C      2.899937   -1.010315    1.365676
C      1.743444   -0.179885    1.077766
C      1.296365    0.965297    1.695880
C      0.102226    1.573740    1.217913
C     -0.508596    2.704881    1.827427
C     -0.002916    3.351568    2.934462
S     -1.007732    4.642181    3.446075
C     -2.136275    4.340157    2.191536
C     -1.757984    3.282622    1.392938
C     -2.483163    2.822151    0.280815
C     -3.819436    3.342197   -0.058176
C     -4.475613    2.912788   -1.145928
C     -3.832758    1.997400   -2.055342
C     -4.353744    1.673478   -3.254227
Si    -3.149950    0.672943   -4.257296
C     -1.942812    0.821024   -2.832652
C     -2.484827    1.443097   -1.761662
C     -1.826766    1.754970   -0.438083
C     -0.631545    1.069191    0.074385
C     -0.133872   -0.146560   -0.458695
C      1.029346   -0.735444    0.026735
C      3.894625   -3.132720    0.479802
C      5.012590   -3.215450    1.328030
N      5.995221   -4.177877    1.366206
C      5.964886   -5.230718    0.504443
C      4.904577   -5.299689   -0.417754
N      4.716409   -6.260979   -1.336212
S      3.330852   -5.863486   -2.152421
N      2.911582   -4.459701   -1.380981
C      3.839463   -4.223665   -0.433393
H      1.027661   -2.851615   -0.278433
H      2.009958   -1.905573   -1.469003
H      3.605291   -0.772302    2.145193
H      1.844196    1.365096    2.540721
H      0.899888    3.153666    3.493178
H     -3.003888    4.979527    2.121716
H     -4.305730    4.046787    0.604488
H     -5.467771    3.284750   -1.378928
H     -5.294845    2.000859   -3.666780
H     -2.681858    1.386330   -5.469794
H     -3.599472   -0.724255   -4.468288
H     -0.944018    0.443336   -2.963251
H     -0.674999   -0.687192   -1.226515
H      5.179901   -2.442944    2.078615
H      6.757663   -5.963782    0.570037
