37

C     -2.292423    0.356843    4.897742
C     -3.423791    1.176265    5.445205
C     -4.000979    1.865129    4.453264
C     -3.328917    1.573391    3.212836
C     -2.326469    0.699587    3.421372
C     -1.397081    0.132082    2.476054
C     -0.410353   -0.745480    2.755578
C      0.395998   -1.165009    1.596497
C      1.452332   -2.055180    1.665173
N      2.178926   -2.426947    0.591559
C      1.840129   -1.887463   -0.613903
C      2.646980   -2.324708   -1.692294
O      3.702852   -3.208204   -1.653105
C      4.179908   -3.330004   -2.927756
C      3.463547   -2.546886   -3.810123
C      2.510832   -1.930650   -3.002476
C      1.476540   -1.010300   -3.296558
C      1.211361   -0.523195   -4.541798
S     -0.119116    0.555876   -4.431625
C     -0.269277    0.313649   -2.723475
C      0.661949   -0.567616   -2.213731
C      0.772325   -0.956733   -0.827170
C      0.044771   -0.604736    0.342046
Si    -1.410319    0.539737    0.627702
H     -2.472776   -0.709523    5.068388
H     -1.344783    0.653780    5.358822
H     -3.718144    1.198622    6.483389
H     -4.839331    2.538907    4.546299
H     -3.632182    2.023022    2.279656
H     -0.190413   -1.138895    3.739990
H      1.756729   -2.508842    2.603488
H      5.019685   -4.002352   -3.038066
H      3.633120   -2.459314   -4.872879
H      1.694498   -0.720375   -5.488593
H     -1.056600    0.861110   -2.233838
H     -2.640248    0.066573   -0.057518
H     -1.072138    1.958844    0.348592
