40

C     -1.462137   -1.745254    6.957571
C     -1.134306   -1.603720    5.602831
C     -1.330947   -0.239358    5.318857
C     -1.230570    0.648014    4.299526
S     -1.700607    2.209079    4.935092
C     -2.000663    1.604037    6.531266
C     -1.744423    0.284515    6.518655
O     -1.854382   -0.569608    7.571783
C     -0.853597    0.482028    2.896054
C     -1.358892   -0.593517    2.154709
C     -0.998767   -0.772391    0.813668
C     -0.126029    0.119916    0.180935
C      0.386412    1.191005    0.922648
C      0.026956    1.369776    2.264529
C      0.241342   -0.074798   -1.222139
C      0.425851   -1.233951   -1.954208
C      0.755683   -0.868727   -3.281615
C      0.771703    0.512347   -3.356498
N      0.442490    0.969874   -2.098757
C      1.033387    1.404879   -4.487069
C      0.635271    1.042199   -5.780832
C      0.876593    1.888514   -6.866352
C      1.523361    3.106458   -6.670926
C      1.930793    3.477606   -5.391618
C      1.687829    2.631550   -4.305736
H     -1.463168   -2.603943    7.616390
H     -0.798385   -2.391363    4.943949
H     -2.333854    2.218663    7.354349
H     -2.052399   -1.298807    2.607318
H     -1.421485   -1.610573    0.264336
H      1.090880    1.888888    0.477524
H      0.459172    2.203953    2.813049
H      0.341655   -2.242904   -1.571493
H      0.969305   -1.547182   -4.097545
H      0.320862    1.943924   -1.862236
H      0.121211    0.099717   -5.953813
H      0.557954    1.594850   -7.863069
H      1.713077    3.763640   -7.515535
H      2.444196    4.423306   -5.238552
H      2.036693    2.935046   -3.322396
