39

Si    -2.834110   -0.671487    2.166958
C     -4.376231   -0.234493    1.132779
C     -4.062909   -0.059352   -0.169408
C     -2.675638   -0.238260   -0.490093
C     -1.808023   -0.579041    0.587003
C     -0.493870   -0.726548    0.249945
S     -0.316848   -0.440466   -1.446172
C     -2.000271   -0.123693   -1.680890
C     -2.512991    0.190378   -2.978073
S     -3.530605   -0.880270   -3.869118
C     -3.659325    0.199019   -5.206577
C     -2.943932    1.308277   -4.915781
C     -2.694606    2.511922   -5.617325
C     -1.881335    3.391657   -4.893583
S     -1.353011    2.842213   -3.308035
C     -2.291791    1.343583   -3.682597
C      0.621761   -1.081229    1.078301
C      0.733766   -2.157234    1.934659
N      1.917265   -2.248750    2.641704
C      2.717761   -1.245479    2.317407
S      2.059902   -0.154579    1.152111
C      4.067001   -1.038534    2.880586
C      4.596269   -1.948715    3.794324
C      5.871305   -1.727305    4.309736
C      6.583330   -0.606708    3.901877
C      5.988426    0.250166    2.991887
N      4.754286    0.061530    2.475747
H     -2.533222    0.396711    3.150913
H     -2.932130   -2.043782    2.723861
H     -5.347756   -0.147546    1.592098
H     -4.798535    0.201474   -0.922169
H     -4.238100   -0.051488   -6.084234
H     -3.077035    2.751478   -6.601982
H     -1.547151    4.371053   -5.208102
H     -0.022180   -2.919212    2.082358
H      4.024351   -2.819675    4.100871
H      6.302147   -2.424935    5.022291
H      7.578146   -0.405262    4.283305
H      6.504197    1.140042    2.641713
