40

C      2.327364    2.936547    0.701626
O      2.850295    1.968363   -0.209628
C      1.879839    1.636108   -1.147313
C      1.833093    2.352016   -2.360094
C      2.645761    3.437670   -2.842260
C      2.280382    3.870107   -4.093684
S      0.963933    2.983831   -4.709094
C      0.861580    1.994233   -3.295345
C     -0.036714    0.949117   -3.030987
O     -0.986164    0.595588   -3.982204
C     -2.203926    1.299204   -3.732303
C      0.060741    0.185575   -1.850824
C     -0.688844   -0.960732   -1.408004
C     -0.303998   -1.424860   -0.169301
C     -0.843833   -2.546021    0.549548
S     -1.082777   -4.079307   -0.233509
C     -1.671553   -4.835383    1.201786
C     -1.689539   -3.928364    2.219708
C     -1.236511   -2.645615    1.857940
C     -1.343239   -1.791152    3.015237
O     -1.111170   -0.595710    3.075728
N     -1.810343   -2.621498    4.024164
C     -2.101717   -2.148670    5.352369
C     -2.069924   -3.915364    3.607013
O     -2.532648   -4.848179    4.239751
S      0.990362   -0.505987    0.451746
C      1.028043    0.545749   -0.914938
H      3.104070    3.151869    1.441442
H      1.448980    2.557041    1.234242
H      2.082217    3.871755    0.186921
H      3.468059    3.867974   -2.283214
H      2.728252    4.662321   -4.677823
H     -2.057862    2.383964   -3.769073
H     -2.913984    1.027003   -4.518863
H     -2.638291    1.008954   -2.769698
H     -1.483275   -1.409539   -1.993068
H     -1.967940   -5.875978    1.208356
H     -3.104867   -1.711991    5.348844
H     -1.382637   -1.377076    5.641153
H     -2.074186   -2.975507    6.067071
