39

C      1.344638   -0.937357    5.241204
N      0.303570   -1.188774    4.245827
C     -1.030844   -1.449393    4.782502
C      0.426561   -0.601620    2.977664
C      1.672577   -0.126340    2.496474
C      1.835835    0.452236    1.226522
C      0.736048    0.555354    0.401222
C      0.603757    1.092240   -0.935383
C      1.549811    1.667278   -1.770438
C      1.146105    2.110440   -3.035053
C     -0.193484    1.972276   -3.444109
C     -0.585830    2.450935   -4.785400
O     -1.734660    2.362663   -5.200474
C     -1.150530    1.392520   -2.604554
C     -0.739551    0.956233   -1.352523
C     -1.569851    0.292993   -0.249912
C     -2.680885    1.229074    0.238981
C     -2.146655   -1.044734   -0.726866
C     -0.512460    0.080362    0.836685
C     -0.668284   -0.493555    2.097985
H      2.302954   -1.365713    4.929011
H      1.103018   -1.411705    6.199150
H      1.462488    0.136059    5.426653
H     -0.975591   -1.927578    5.767039
H     -1.586802   -2.144661    4.144309
H     -1.597981   -0.519100    4.897487
H      2.566151   -0.204265    3.108785
H      2.813662    0.800330    0.912540
H      2.583209    1.774461   -1.456698
H      1.882875    2.562198   -3.694933
H      0.212720    2.896532   -5.401871
H     -2.182865    1.288136   -2.926034
H     -2.278481    2.189973    0.582542
H     -3.234632    0.788371    1.075968
H     -3.402123    1.442740   -0.558274
H     -2.850475   -0.903069   -1.555133
H     -2.683927   -1.557884    0.078988
H     -1.359233   -1.722572   -1.078707
H     -1.653170   -0.850516    2.375447
