24

N      2.181259    0.881060   -3.269563
C      1.406638    0.349572   -2.280337
O      0.190416    0.527486   -2.287379
C      2.092955   -0.427087   -1.247598
C      3.507136   -0.672684   -1.124401
C      3.819494   -1.448964   -0.031326
S      2.429845   -1.884637    0.850865
C      1.403606   -1.045086   -0.209138
N      0.030406   -1.008746   -0.017054
C     -0.700381   -1.602844    0.988167
O     -0.283975   -2.286062    1.912400
C     -2.180850   -1.372153    0.921388
C     -2.785748   -0.067004    0.458063
C     -2.940224   -1.302572   -0.383405
H      1.709036    1.393540   -4.001943
H      3.173236    0.727944   -3.353639
H      4.269326   -0.301845   -1.796715
H      4.796408   -1.780750    0.293190
H     -0.474766   -0.469210   -0.715980
H     -2.702121   -1.864568    1.740335
H     -3.658044    0.297039    0.990953
H     -2.140958    0.726470    0.099360
H     -2.401862   -1.360361   -1.321912
H     -3.916982   -1.773783   -0.419374
