24

C      0.285473   -3.761974   -0.249616
C      1.168264   -4.179930    0.730145
N      1.776112   -3.378517    1.626519
C      1.456585   -2.072078    1.507046
S      2.132533   -0.918089    2.557392
C      1.289522    0.348194    1.798305
N      1.430677    1.620073    2.227526
C      0.700872    2.522923    1.531023
C     -0.139255    2.243270    0.460695
C     -0.871034    3.307329   -0.205350
N     -0.770882    4.626236    0.183963
C     -1.571269    5.227655   -0.659045
O     -2.164351    4.390879   -1.544770
N     -1.700065    3.110590   -1.245423
C     -0.247880    0.907088    0.057624
C      0.489945   -0.085318    0.745548
C      0.588259   -1.513449    0.573373
C     -0.017984   -2.405554   -0.339494
H     -0.159662   -4.477994   -0.932330
H      1.423011   -5.233595    0.822901
H      0.822790    3.545793    1.886331
H     -1.813905    6.276576   -0.738188
H     -0.889382    0.625480   -0.773466
H     -0.707370   -2.046276   -1.097874
