23

Cl    -2.632609    5.275066   -1.585701
C     -1.819679    3.871522   -1.012416
C     -2.416007    2.620357   -1.152422
C     -1.754887    1.479175   -0.686232
C     -0.569201    3.992252   -0.410983
C      0.090586    2.850259    0.054641
C     -0.494074    1.580966   -0.077369
C      0.204154    0.394148    0.412727
N     -0.288395   -0.849995    0.323041
N      0.683734   -1.591793    0.893358
C      0.730394   -2.967322    1.085574
C      1.795466   -3.523153    1.678816
C      2.862127   -2.564524    2.086523
N      2.846903   -1.277175    1.920637
C      1.734080   -0.768415    1.309669
N      1.438152    0.475431    1.010843
H     -3.391484    2.523248   -1.621231
H     -2.231791    0.507572   -0.801784
H     -0.100766    4.966468   -0.299952
H      1.068049    2.956646    0.523270
H     -0.124457   -3.528428    0.733343
H      1.916184   -4.579858    1.868320
H      3.737870   -3.024752    2.574736
