47

C      2.279168    0.786230   -2.159187
C      2.892554    0.041341   -1.009907
C      1.926347   -0.551474   -0.291314
C      2.020088   -1.389041    0.896434
C      0.848851   -1.840792    1.406935
C     -0.456174   -1.529939    0.812823
C     -0.605317   -0.753645   -0.288840
C     -1.935305   -0.514757   -0.762088
S     -2.580139    1.085269   -0.744538
C     -4.103303    0.614191   -1.402597
C     -5.150191    1.580092   -1.671141
C     -6.105740    1.516891   -2.671975
C     -6.999503    2.627619   -2.663166
C     -6.708615    3.510323   -1.649480
S     -5.370547    2.998557   -0.720260
C     -4.118311   -0.748665   -1.630102
N     -5.189897   -1.424618   -2.146627
C     -4.932087   -2.754909   -2.256127
C     -3.734440   -3.374778   -1.891562
N     -2.653524   -2.737179   -1.373820
C     -2.878625   -1.394421   -1.253128
C      0.624424   -0.237189   -0.882346
C      0.811823    0.527953   -1.969935
C      3.222460   -1.758531    1.568479
S      4.319118   -2.912282    0.862088
C      5.424290   -2.830109    2.187574
C      4.953133   -1.951641    3.112811
C      5.388446   -1.464653    4.369690
C      4.482772   -0.575801    4.838863
C      3.312494   -0.403943    3.863243
C      3.721272   -1.344847    2.780102
H      2.628101    0.388591   -3.116967
H      2.502025    1.855913   -2.100584
H      3.952953   -0.008651   -0.814097
H      0.828320   -2.475513    2.289680
H     -1.316682   -1.966186    1.314899
H     -6.163941    0.706034   -3.389333
H     -7.813673    2.766831   -3.363674
H     -7.218415    4.432487   -1.406769
H     -5.748095   -3.345466   -2.663705
H     -3.614318   -4.447508   -2.016541
H      0.044230    0.910449   -2.624493
H      6.328246   -3.421826    2.194314
H      6.301348   -1.761606    4.866097
H      4.557266   -0.045518    5.776764
H      2.370536   -0.704737    4.330686
H      3.252448    0.627931    3.505736
