40

C     -0.851348    1.229785    4.249426
C     -0.252264    0.483559    3.096130
C     -0.800453    0.915153    1.953352
C     -0.575221    0.530185    0.605745
C      0.281955   -0.417130    0.008781
N      1.174098   -1.268488    0.566029
C      1.839482   -2.052344   -0.322600
C      1.702953   -2.071792   -1.719193
C      0.766091   -1.172284   -2.256504
C      0.063718   -0.350267   -1.365881
N     -0.899728    0.612562   -1.587208
C     -1.302359    1.161603   -0.395261
C     -2.304376    2.214764   -0.171882
C     -3.022907    2.836042   -1.183616
N     -3.944813    3.805522   -0.973805
C     -4.160382    4.173182    0.308985
C     -3.502836    3.623275    1.398253
C     -2.557107    2.626454    1.162701
C     -1.788991    1.962084    2.242746
C     -1.827863    2.153992    3.572881
C      2.514210   -2.998279   -2.546644
C      2.434687   -3.077384   -3.938869
C      3.241639   -3.983608   -4.629229
C      4.114485   -4.796302   -3.922850
C      4.143510   -4.667623   -2.548767
N      3.372062   -3.797789   -1.858884
H     -0.088390    1.794907    4.792766
H     -1.365377    0.549809    4.935060
H      0.504261   -0.282759    3.179498
H      2.547957   -2.723515    0.163105
H      0.574593   -1.097101   -3.319315
H     -1.249389    0.867001   -2.499541
H     -2.886162    2.576463   -2.227709
H     -4.905320    4.952732    0.445209
H     -3.731811    3.972284    2.397686
H     -2.450620    2.853794    4.107009
H      1.759962   -2.452260   -4.510875
H      3.185304   -4.050777   -5.712184
H      4.754452   -5.510193   -4.428389
H      4.807079   -5.277501   -1.942270
