45

C     -3.245337    4.762960    0.816842
C     -4.110827    5.945923    1.263140
C     -5.088620    5.548277    2.108512
C     -4.992077    4.149091    2.304987
C     -5.681943    3.215788    3.012788
S     -4.978527    1.663102    2.746696
C     -3.744561    2.283485    1.680217
C     -2.792085    1.412927    1.105751
C     -3.095471    0.406091    0.264786
C     -1.913349   -0.326116   -0.172335
C     -0.625872    0.053415    0.302962
Si    -0.955924    1.555776    1.465027
C      0.623756   -0.596166   -0.042111
C      1.817023   -0.161859    0.548860
C      3.055183   -0.744156    0.271063
C      3.201524   -1.763728   -0.663016
C      4.522774   -2.240766   -0.876702
C      4.865912   -3.216748   -1.814332
C      3.800966   -3.692841   -2.594517
N      3.933300   -4.592057   -3.581541
S      2.431091   -4.786386   -4.241506
N      1.555290   -3.755810   -3.295097
C      2.378283   -3.210497   -2.384405
C      2.035059   -2.245948   -1.347284
C      0.713657   -1.706583   -0.977949
C     -0.621327   -2.092555   -1.375282
C     -1.047616   -3.187463   -2.089244
O     -2.408694   -3.189538   -2.224661
C     -2.885221   -2.106776   -1.554136
C     -1.837798   -1.429375   -0.992075
C     -3.904095    3.643817    1.555818
H     -3.303897    4.625008   -0.266357
H     -2.207959    4.906207    1.130963
H     -3.947228    6.960957    0.933087
H     -5.832272    6.187116    2.563501
H     -6.542797    3.333887    3.655052
H     -4.092248    0.151278   -0.068326
H     -0.583307    1.238074    2.867938
H     -0.348123    2.798733    0.919376
H      1.823869    0.647460    1.275941
H      3.922901   -0.349532    0.800503
H      5.342349   -1.824360   -0.286298
H      5.883535   -3.557140   -1.958693
H     -0.580795   -4.047297   -2.538365
H     -3.959634   -1.991796   -1.556705
