35

C      0.473755    2.934369    2.549252
C      0.391824    2.121530    3.666194
C      0.105510    0.788027    3.465989
N     -0.099575    0.226395    2.250932
C     -0.029651    0.981517    1.130508
C      0.263747    2.373035    1.267576
C      0.313154    3.069871    0.031173
C      0.578073    4.415649   -0.088446
S      0.559968    4.927991   -1.725655
C      0.196438    3.346485   -2.283677
C      0.090613    2.445851   -1.247517
C     -0.202405    1.066529   -1.412738
C     -0.429363    0.408144   -2.656995
C     -0.712327   -0.958901   -2.721052
C     -0.940428   -1.611249   -3.997037
C     -1.233711   -2.986332   -4.177275
C     -1.272816   -3.628877   -2.951010
C     -1.525663   -4.954832   -2.724040
O     -1.475795   -5.203710   -1.378935
C     -1.188206   -4.020977   -0.751035
C     -1.054710   -3.023071   -1.681964
C     -0.761250   -1.656449   -1.476318
C     -0.536378   -1.006692   -0.236470
C     -0.250806    0.367530   -0.157046
H      0.697695    3.988284    2.676125
H      0.546427    2.514841    4.664074
H      0.028601    0.101867    4.305242
H      0.784100    5.145619    0.681041
H      0.084583    3.186960   -3.346301
H     -0.382726    0.977020   -3.581926
H     -0.883619   -1.000232   -4.900651
H     -1.398595   -3.442092   -5.142707
H     -1.746171   -5.809502   -3.347389
H     -1.118593   -4.074492    0.326077
H     -0.587816   -1.595455    0.678381
