32

C     -1.443595   -1.247271    3.507873
C     -0.576945   -0.364059    2.636794
O      0.599301   -0.172166    2.951701
N     -1.206294    0.221603    1.536234
C     -2.539006    0.627695    1.605777
C     -2.929629    1.389836    2.851736
O     -3.385365    0.362847    0.751447
C     -0.481853    0.400122    0.297852
C      0.732530   -0.267896    0.052243
C      1.441314   -0.095418   -1.146057
C      0.953087    0.753806   -2.133605
N      1.631625    0.964499   -3.330632
C      1.094577    1.804493   -4.271490
C      1.853502    1.954582   -5.568144
N     -0.006527    2.472347   -4.139454
C     -0.722365    2.355473   -2.966368
O     -1.745692    2.998490   -2.757110
C     -0.244663    1.429286   -1.903532
C     -0.961544    1.253481   -0.709591
H     -1.739511   -0.702530    4.407494
H     -2.330189   -1.602670    2.976697
H     -0.862376   -2.127985    3.798316
H     -3.539011    0.752615    3.497084
H     -3.513833    2.266191    2.555232
H     -2.055533    1.746065    3.403086
H      1.159438   -0.953680    0.781395
H      2.375472   -0.633655   -1.285973
H      2.479783    0.447804   -3.517548
H      2.869681    2.299524   -5.356870
H      1.360682    2.675256   -6.226518
H      1.903276    0.985056   -6.071906
H     -1.887850    1.812184   -0.589729
