44

Si    -2.824681   -2.862268    3.207605
C     -3.385565   -4.511790    3.998352
C     -2.480478   -5.492345    3.786316
C     -1.332271   -5.096477    3.029882
C     -0.230410   -5.809753    2.642359
S      0.851218   -4.813543    1.735143
C     -0.161011   -3.416783    1.878806
C     -1.276448   -3.745896    2.591714
C      0.236215   -2.174977    1.250205
C     -0.357656   -1.666926    0.097649
N     -0.047063   -0.498355   -0.547934
C      0.959221    0.333386   -0.103619
C      1.222785    1.553221   -0.868968
C      0.211234    2.176648   -1.609750
C      0.466753    3.336936   -2.347049
C      1.746486    3.881253   -2.347163
N      2.754975    3.284349   -1.663113
C      2.472384    2.161729   -0.948875
C      2.131925    5.079361   -3.101393
C      3.427021    5.234184   -3.670081
C      3.854959    6.364912   -4.405789
C      3.027379    7.468185   -4.648985
C      1.724425    7.398766   -4.104340
N      0.786643    8.350263   -4.227323
S     -0.544899    7.810121   -3.401191
N     -0.001195    6.341578   -2.862741
C      1.260625    6.191466   -3.310603
C      1.641827   -0.059679    1.085352
N      2.625351    0.596602    1.729142
S      3.030560   -0.307296    3.055599
N      1.979444   -1.573689    2.893321
C      1.259729   -1.352743    1.777868
H     -3.742574   -2.447743    2.118283
H     -2.557135   -1.833929    4.242404
H     -4.318735   -4.581375    4.534719
H     -2.605277   -6.504997    4.153339
H      0.012155   -6.846571    2.830301
H     -1.160322   -2.225070   -0.385719
H     -0.794746    1.760737   -1.620666
H     -0.339854    3.786076   -2.916849
H      3.342217    1.750720   -0.442475
H      4.146792    4.422872   -3.532277
H      4.873296    6.375631   -4.795272
H      3.362493    8.329430   -5.214258
