33

C      0.315913   -0.967411    4.175173
C     -0.476135    0.147093    3.571200
C     -0.226531    0.219269    2.253349
C     -0.787371    1.146338    1.278565
C     -0.392371    1.013012   -0.008332
C      0.566896   -0.029577   -0.457957
C      0.902899   -0.086223   -1.812672
C      1.804918   -1.042378   -2.285573
C      2.385197   -1.958938   -1.388918
C      3.315332   -3.021153   -1.561337
C      3.531907   -3.586915   -0.329876
N      2.767637   -2.906784    0.579731
C      2.047566   -1.901286   -0.029306
C      1.137728   -0.947199    0.468411
C      0.730739   -0.829834    1.879512
C      1.050861   -1.520438    2.988110
C     -1.689997    2.209923    1.592094
C     -1.500810    3.318915    2.402155
N     -2.577533    4.174770    2.538877
C     -3.584287    3.708448    1.835882
S     -3.308149    2.245886    0.988472
H     -0.339193   -1.722878    4.618737
H      1.012924   -0.593646    4.930854
H     -1.148371    0.778922    4.131954
H     -0.760516    1.687802   -0.776844
H      0.467970    0.613460   -2.522519
H      2.057613   -1.075943   -3.341691
H      3.774496   -3.332941   -2.490236
H      4.161222   -4.410755   -0.021287
H      2.743612   -3.119589    1.563335
H      1.716695   -2.357431    3.084484
H     -0.578478    3.550280    2.922231
H     -4.539847    4.214332    1.791538
