38

N      1.100307    0.012017   -1.877286
C      0.584548   -0.959904   -1.032596
C     -0.733142   -1.175670   -0.848796
C     -1.800890   -0.420927   -1.553291
O     -1.677495   -0.216107   -2.764277
N     -2.891734    0.043771   -0.829965
C     -3.989803    0.654877   -1.577151
C     -5.286808    0.658078   -0.778512
C     -5.140085    1.402201    0.548723
C     -3.705072    1.405912    1.075037
C     -2.928284    0.170016    0.631453
S     -1.087800   -2.557442    0.114111
C      0.637982   -2.825417    0.421096
S      1.128511   -3.985816    1.521795
N      1.380877   -1.880591   -0.322521
C      2.813735   -1.828569   -0.307212
C      3.586847   -2.982426   -0.494871
C      4.983578   -2.915774   -0.497661
C      5.626111   -1.693615   -0.318712
C      4.873609   -0.536190   -0.141793
C      3.477843   -0.603337   -0.140351
H      0.411662    0.301073   -2.581083
H      1.951563   -0.310948   -2.333357
H     -4.133591    0.113582   -2.519240
H     -3.689146    1.678981   -1.829763
H     -6.097515    1.102539   -1.366412
H     -5.580021   -0.379451   -0.572122
H     -5.477521    2.439447    0.434916
H     -5.807858    0.942805    1.287499
H     -3.192340    2.301387    0.700432
H     -3.710661    1.481466    2.168103
H     -1.910980    0.225341    1.030523
H     -3.408004   -0.732333    1.027057
H      3.120745   -3.946918   -0.678595
H      5.567915   -3.820766   -0.645156
H      6.712003   -1.643725   -0.318295
H      5.370338    0.420083    0.001472
H      2.913871    0.312907    0.022176
