33

C     -0.120380   -1.526378   -2.196137
C     -0.652893   -2.089838   -1.044144
O     -0.514627   -1.259903    0.049007
C      0.116395   -0.154781   -0.425179
C      0.352200   -0.297519   -1.734212
O      0.983879    0.804950   -2.216692
C      1.120896    1.632613   -1.122714
C      0.588691    1.076081    0.042053
C      0.642404    1.783214    1.250179
C      1.240611    3.053914    1.254838
C      1.778797    3.620429    0.084595
C      2.378496    4.884483    0.069292
C      2.885783    5.371649   -1.129131
N      2.842325    4.702980   -2.303311
C      2.261838    3.481589   -2.284037
C      1.723668    2.906650   -1.130969
C     -1.306989   -3.367222   -0.821051
N     -1.441274   -4.189282   -1.915367
C     -2.042500   -5.414474   -1.814360
C     -2.580625   -5.994595   -0.672043
C     -2.466037   -5.188036    0.475811
N     -2.907023   -5.522602    1.698729
S     -2.538033   -4.250278    2.696495
N     -1.805172   -3.222185    1.625594
C     -1.811838   -3.827020    0.422627
H     -0.092660   -1.953870   -3.186392
H      0.231340    1.359431    2.162197
H      1.281859    3.602860    2.194691
H      2.454305    5.486758    0.968456
H      3.357733    6.349563   -1.175560
H      2.239801    2.965504   -3.239928
H     -2.081047   -5.959514   -2.757888
H     -3.043298   -6.971009   -0.662647
