40

S     -1.042979   -0.778742   -3.601018
C     -1.094450   -0.832593   -1.934677
N     -1.605980    0.126497   -1.109818
C     -2.255837    1.369120   -1.511525
C     -1.266375    2.488503   -1.827779
C     -0.409026    2.853718   -0.619362
N      0.469977    3.972987   -0.891222
C      0.217502    5.286943   -0.616069
C      1.347174    5.955654   -1.027338
N      2.272460    5.081283   -1.536619
C      1.716138    3.894353   -1.442989
N     -0.555288   -1.926313   -1.328684
C     -0.222531   -2.151080    0.078185
C      1.031546   -1.372123    0.482045
C      1.333299   -1.513969    1.975793
C      0.834894   -2.827962    2.579328
C      0.846305   -3.957826    1.559646
C     -0.046546   -3.654910    0.353159
H     -1.775608   -0.159005   -0.157945
H     -2.900105    1.177884   -2.375821
H     -2.906014    1.668682   -0.681766
H     -0.617742    2.205652   -2.664606
H     -1.830061    3.370078   -2.158143
H     -1.036482    3.129394    0.236281
H      0.223828    2.015053   -0.309289
H     -0.705143    5.629733   -0.170108
H      1.544470    7.018828   -0.982693
H      2.165370    2.960702   -1.756689
H     -0.121009   -2.553592   -1.998772
H     -1.064691   -1.795269    0.682710
H      0.937772   -0.309125    0.233123
H      1.888593   -1.740150   -0.098002
H      0.879209   -0.681036    2.526267
H      2.416146   -1.423689    2.124924
H     -0.187524   -2.692007    2.953976
H      1.451382   -3.091357    3.446205
H      1.876010   -4.117932    1.215440
H      0.525807   -4.895513    2.027625
H     -1.038929   -4.097226    0.509647
H      0.371267   -4.170996   -0.520803
