27

C      4.013153   -2.050368    1.473609
C      2.696890   -1.429793    1.110614
C      1.539635   -1.753338    1.825805
C      0.306376   -1.201651    1.465320
C      0.201717   -0.316032    0.383523
C     -1.120392    0.249724    0.022141
C     -1.224185    1.561385   -0.266163
N     -2.433961    2.113279   -0.591831
C     -3.579145    1.357787   -0.630090
C     -3.367353   -0.112424   -0.272244
C     -4.586465   -0.986311   -0.284517
N     -2.202586   -0.609324    0.035187
O     -4.682427    1.793011   -0.916099
C      1.361334   -0.019696   -0.348380
C      2.595738   -0.571474    0.010922
H      4.842853   -1.381668    1.221279
H      4.143020   -2.994360    0.935522
H      4.069450   -2.245244    2.549753
H      1.585901   -2.441038    2.667160
H     -0.581191   -1.470669    2.034861
H     -0.379868    2.242899   -0.249662
H     -2.520483    3.097521   -0.809868
H     -5.315190   -0.607695    0.437247
H     -4.322859   -2.013254   -0.016732
H     -5.028940   -0.983176   -1.284283
H      1.315264    0.628518   -1.220043
H      3.476876   -0.331456   -0.580033
