49

C      1.785697   -4.751711   -1.545131
C      2.004209   -3.299823   -1.814814
C      1.195237   -2.571578   -1.027494
C      1.115078   -1.123532   -0.890660
C      1.747208   -0.242421   -1.782197
C      1.586417    1.134905   -1.645078
C      0.770505    1.560313   -0.609105
N      0.148934    0.733337    0.267022
C      0.335858   -0.607819    0.159771
C     -0.427485   -1.498954    1.127062
C     -1.073964   -0.980969    2.320797
C     -0.792066    0.290175    2.897341
C     -1.440262    0.790594    4.029088
C     -2.402500    0.026536    4.652998
C     -2.689275   -1.239434    4.152170
C     -2.035607   -1.773042    3.010227
C     -2.313446   -3.069791    2.532627
C     -3.359250   -3.974921    3.083848
C     -3.464647   -5.166158    2.476067
Si    -2.245771   -5.364831    1.101562
C     -1.567975   -3.631156    1.455487
C     -0.571566   -2.892966    0.801589
C      0.366874   -3.447753   -0.208506
C      0.738197   -4.714908   -0.472901
C      2.222371    2.075417   -2.553680
S      2.002150    2.000061   -4.263512
C      3.000359    3.374035   -4.551982
C      3.453302    3.816538   -3.358159
C      4.299889    4.885738   -2.980318
C      4.494374    4.947617   -1.595716
S      3.675368    3.721692   -0.636650
C      3.044241    3.119809   -2.220399
H      2.701916   -5.226988   -1.182711
H      1.424714   -5.274823   -2.435221
H      2.739510   -2.929517   -2.511848
H      2.357502   -0.630506   -2.592759
H      0.567725    2.615739   -0.444200
H     -0.013495    0.925301    2.483475
H     -1.179461    1.772769    4.412926
H     -2.918209    0.399295    5.532936
H     -3.435472   -1.816456    4.690399
H     -4.000739   -3.689359    3.904941
H     -4.166146   -5.946113    2.729189
H     -2.905111   -5.470245   -0.224028
H     -1.274716   -6.448504    1.400146
H      0.413476   -5.618908    0.011003
H      3.179775    3.745766   -5.550944
H      4.759913    5.589363   -3.663499
H      5.096495    5.668276   -1.058857
