43

Si    -0.858648    3.097484    3.164503
C      0.878794    2.674480    2.640020
C      0.902667    1.702150    1.701697
C      2.137131    1.061809    1.162178
C      3.440542    1.389650    1.715202
C      4.637178    0.693951    1.436842
C      4.366831   -0.387471    0.619495
C      5.256290   -1.365807    0.266405
O      4.604909   -2.329336   -0.448029
C      3.295299   -1.947806   -0.548296
C      3.105047   -0.717916    0.034741
C      1.924658    0.030171    0.179236
C      0.616639   -0.217785   -0.429802
C      0.338491   -0.816906   -1.673360
C      1.218302   -1.090849   -2.696466
N      0.506551   -1.648539   -3.734202
C     -0.833062   -1.654232   -3.433455
C     -0.977427   -1.113724   -2.177137
C     -2.173513   -0.822555   -1.516519
C     -1.919852   -0.083257   -0.335987
C     -0.604452    0.250348    0.168688
C     -0.446788    1.225863    1.287739
C     -1.464625    1.820792    1.948867
C     -3.502253   -1.123585   -2.003750
C     -4.730847   -0.505109   -1.867165
C     -5.673784   -1.312396   -2.549090
C     -4.968192   -2.379956   -3.048816
O     -3.655687   -2.277400   -2.719461
H     -1.249648    4.475644    2.782362
H     -1.136015    2.721085    4.571417
H      1.706632    3.169149    3.118169
H      3.520883    2.206260    2.430891
H      5.589733    0.937218    1.884403
H      6.303798   -1.552246    0.455261
H      2.654779   -2.664937   -1.041206
H      2.280865   -0.928518   -2.810916
H      0.904648   -1.954537   -4.612706
H     -1.554064   -2.007535   -4.158311
H     -2.790143    0.270412    0.212660
H     -2.524185    1.678009    1.824641
H     -4.920920    0.420838   -1.343392
H     -6.734972   -1.140322   -2.658640
H     -5.236821   -3.253076   -3.626589
