36

C      6.504610   -0.306657   -2.925391
C      5.731712    0.113456   -4.010171
C      4.353581    0.282295   -3.863995
C      3.753238    0.029798   -2.631389
C      4.524804   -0.389566   -1.548432
C      5.901127   -0.558869   -1.691956
O      3.977477   -0.649624   -0.317194
C      2.620985   -0.469400   -0.224711
C      2.018549   -0.720311    1.003999
C      0.637588   -0.550376    1.147937
C     -0.160840   -0.128038    0.068346
C     -1.612003    0.050355    0.222635
C     -2.158412    0.796272    1.262942
N     -3.483651    0.992108    1.456914
C     -4.325844    0.424308    0.572061
C     -5.694080    0.590835    0.717520
C     -6.585709    0.013970   -0.183643
C     -6.064021   -0.727836   -1.224707
N     -4.741734   -0.920670   -1.411767
C     -3.897641   -0.351398   -0.525293
C     -2.528186   -0.520209   -0.671802
C      0.470897    0.117371   -1.163598
C      1.849760   -0.051936   -1.305393
O      2.396150    0.209794   -2.536950
H      7.577694   -0.437677   -3.041229
H      6.203395    0.309304   -4.970000
H      3.751196    0.608877   -4.706888
H      6.501055   -0.885753   -0.847483
H      2.618182   -1.051004    1.847574
H      0.186318   -0.767433    2.114951
H     -1.523450    1.288001    1.996735
H     -6.069427    1.181358    1.548936
H     -7.656152    0.143051   -0.071622
H     -6.711156   -1.201152   -1.957899
H     -2.175109   -1.125546   -1.504064
H     -0.106179    0.454157   -2.022351
