45

C     -0.628704    5.232319   -0.230864
N     -1.867250    4.725633    0.050468
C     -1.838445    3.352815   -0.044289
C     -0.564123    2.957721   -0.392197
C      0.201342    4.168253   -0.508840
C      1.562490    4.277308   -0.846496
C      2.245813    5.568267   -0.937227
C      3.595183    5.723881   -1.268917
C      4.155254    4.483761   -1.489759
C      5.465047    4.289715   -1.833749
O      5.696602    2.959074   -1.977214
C      4.520813    2.308775   -1.720981
C      3.514140    3.196138   -1.409520
C      2.128753    2.951196   -1.074371
C      1.330177    1.675604   -0.953471
C      1.916233    0.419524   -1.181794
C      1.237556   -0.799344   -1.087652
C     -0.107236   -0.854241   -0.750779
C     -0.741609   -2.109324   -0.670169
C     -2.087669   -2.204079   -0.335541
N     -2.785197   -1.074999   -0.087133
C     -2.147525    0.123329   -0.172197
C     -0.799003    0.340832   -0.499576
C     -0.077371    1.623683   -0.600475
C     -2.836174   -3.491144   -0.228056
C     -2.259666   -4.745391   -0.453955
C     -3.034669   -5.900864   -0.331381
C     -4.372563   -5.792134    0.014267
C     -4.882157   -4.526626    0.223949
N     -4.152553   -3.396442    0.111241
H     -0.468985    6.300821   -0.203192
H     -2.683390    5.273732    0.292071
H     -2.760344    2.837395    0.156376
H      1.683617    6.478987   -0.736848
H      4.094520    6.679185   -1.334451
H      6.313618    4.936114   -2.007381
H      4.619718    1.241058   -1.814135
H      2.956029    0.327383   -1.450822
H      1.797463   -1.711949   -1.287484
H     -0.160530   -3.001390   -0.874032
H     -2.825274    0.930483    0.050649
H     -1.217028   -4.856763   -0.725030
H     -2.591847   -6.877490   -0.505729
H     -5.001864   -6.668313    0.117755
H     -5.922502   -4.376293    0.496902
