33

C     -0.753193   -2.094982    0.480856
C     -0.627596   -0.714745   -0.254254
C     -1.604405   -0.591663   -1.201925
C     -2.379809   -1.770434   -1.170450
O     -3.467425   -2.241785   -1.852437
C     -3.622421   -3.436718   -1.257361
C     -2.745846   -3.757800   -0.277700
N     -3.131898   -5.007618    0.144029
C     -4.227840   -5.426895   -0.577944
C     -5.201667   -6.411160   -0.844564
C     -5.956959   -5.842085   -1.868378
O     -5.523532   -4.590886   -2.248288
C     -4.488287   -4.420638   -1.427485
C     -1.911843   -2.649760   -0.212719
C      0.349976    0.308940   -0.009852
S      0.365293    1.815419   -0.906782
C      1.732747    2.444454   -0.079271
C      2.179437    1.554257    0.853658
C      3.278954    1.653581    1.764915
C      3.452300    0.581263    2.566384
Si     2.144257   -0.752375    2.217139
C      1.395251    0.364602    0.880217
H      0.143832   -2.700574    0.324031
H     -0.947379   -1.949742    1.547260
H     -1.800032    0.225467   -1.878386
H     -2.680545   -5.541618    0.874539
H     -5.351561   -7.377076   -0.386306
H     -6.817818   -6.195347   -2.421030
H      2.120263    3.422268   -0.328227
H      3.917587    2.529003    1.799802
H      4.209902    0.441087    3.320440
H      2.751211   -1.993853    1.676120
H      1.246131   -0.963869    3.379495
