45

C     -0.664471    4.288573   -0.001327
C      0.294463    3.540120   -0.877358
C      0.157711    2.220445   -0.690595
C      0.847105    1.100373   -1.237104
C      0.606445   -0.128118   -0.642087
O      1.398033   -1.092189   -1.159753
C      2.143048   -0.509253   -2.150233
C      3.144153   -1.183332   -2.912416
C      3.786843   -0.490601   -3.870994
C      3.417941    0.892592   -4.144660
C      3.948256    1.618567   -5.147601
Si     3.124803    3.288030   -5.269422
C      2.029936    2.802138   -3.832045
C      2.351121    1.585224   -3.355498
C      1.758535    0.836427   -2.284096
C     -0.347734   -0.429139    0.412725
C     -0.574729   -1.727495    0.940733
N      0.037182   -2.876464    0.603198
S     -0.622204   -4.078409    1.523394
N     -1.717817   -3.216859    2.413241
C     -1.624867   -1.931795    2.023103
C     -2.390113   -0.827879    2.509426
C     -2.107051    0.437495    1.940994
C     -1.131459    0.645460    0.935939
C     -0.841926    1.996762    0.377994
C     -1.332934    3.187015    0.765191
C     -3.397844   -1.025009    3.553169
C     -3.315607   -1.758714    4.723619
C     -4.516629   -1.716354    5.490001
C     -5.486268   -0.953381    4.882248
S     -4.948545   -0.297034    3.399736
H     -0.132040    4.966008    0.672841
H     -1.387166    4.853758   -0.596892
H      1.006185    4.033397   -1.514718
H      3.371813   -2.219267   -2.692780
H      4.559330   -0.959964   -4.470247
H      4.706715    1.310409   -5.849523
H      2.360681    3.455465   -6.528630
H      4.040734    4.401852   -4.924994
H      1.240612    3.456443   -3.514541
H     -2.667942    1.295387    2.310370
H     -2.060634    3.369799    1.540397
H     -2.429965   -2.308929    5.020232
H     -4.660467   -2.224529    6.435532
H     -6.488433   -0.752088    5.234949
