38

C      2.084828   -1.928644   -5.618676
C      1.732425   -1.520525   -4.313893
C      0.316535   -1.436118   -4.271214
C     -0.703479   -1.134729   -3.436585
S     -2.181013   -1.314472   -4.342984
C     -1.365216   -1.795758   -5.800551
C     -0.040738   -1.795632   -5.550547
N      0.960152   -2.108036   -6.422983
C     -0.734521   -0.723639   -2.046625
C     -1.210895    0.534906   -1.638685
C     -1.209150    0.928114   -0.272834
S     -1.757392    2.437229    0.362057
C     -1.374018    1.976856    1.939847
C     -0.830900    0.708459    2.077024
C     -0.506466    0.320001    3.409110
C     -0.707694    1.143051    4.559090
C     -1.255656    2.430977    4.451661
C     -1.589423    3.492928    5.328708
C     -2.103524    4.499297    4.539815
O     -2.109466    4.128833    3.231072
C     -1.593896    2.874046    3.188484
C     -0.750362    0.130725    0.773088
C     -0.254184   -1.181133    0.397429
C      0.238933   -2.145828    1.228697
S      0.686302   -3.535778    0.318126
C      0.201634   -2.805123   -1.161654
C     -0.278446   -1.521632   -0.988311
H      3.065046   -2.104952   -6.043149
H      2.429122   -1.315349   -3.511529
H     -1.896805   -2.035399   -6.710386
H      0.879506   -2.389705   -7.392295
H     -1.582261    1.233974   -2.387003
H     -0.076328   -0.658117    3.599908
H     -0.427236    0.755620    5.536641
H     -1.471600    3.524830    6.402249
H     -2.489252    5.488480    4.744171
H      0.377002   -2.169516    2.295177
H      0.302515   -3.376957   -2.074201
