41

C     -3.428152   -2.895907    0.301365
C     -3.823612   -1.489544   -0.148295
C     -5.027814   -1.554929   -1.086275
C     -2.644827   -0.786127   -0.820231
O     -2.627172   -0.504150   -2.013559
N     -1.617581   -0.490594    0.044340
C     -0.326660    0.002990   -0.420166
C      0.679724   -1.081495   -0.156705
C      1.750331   -1.564528   -0.883011
C      2.328090   -2.599119   -0.110138
C      1.577258   -2.685916    1.038391
O      0.573739   -1.771162    1.024144
C      0.070410    1.305591    0.256129
C     -0.323338    1.626259    1.564397
C      0.084888    2.822016    2.162650
C      0.908775    3.721908    1.467636
C      1.341316    4.928572    2.033651
C      2.163158    5.779258    1.302640
C      2.526266    5.395066    0.025071
N      2.131150    4.240687   -0.556674
C      1.331809    3.420389    0.160630
C      0.905495    2.218704   -0.406512
O      1.345878    1.926906   -1.680958
H     -3.058430   -3.489973   -0.541996
H     -2.634866   -2.869368    1.055786
H     -4.283233   -3.420382    0.740953
H     -4.108034   -0.896319    0.730453
H     -5.890598   -2.002282   -0.581823
H     -4.808867   -2.151639   -1.978682
H     -5.315593   -0.552086   -1.420172
H     -1.597159   -0.946456    0.944904
H     -0.395619    0.166831   -1.501576
H      2.068527   -1.201843   -1.851406
H      3.187411   -3.205836   -0.358365
H      1.626785   -3.312650    1.917851
H     -0.948692    0.946242    2.137683
H     -0.240786    3.043049    3.176858
H      1.042550    5.207950    3.040681
H      2.511165    6.717402    1.719717
H      3.165557    6.026046   -0.586458
H      1.884929    2.709958   -1.929328
