24

N      1.258036   -6.528695    1.443465
C      1.277222   -5.426880    1.078433
C      1.298658   -4.065232    0.631032
C      0.898735   -3.747057   -0.669740
C      0.921563   -2.418109   -1.104128
C      1.721735   -3.049471    1.493422
C      1.742308   -1.721134    1.056055
C      1.339964   -1.391337   -0.245930
C      1.360799    0.004262   -0.705550
C      0.711046    0.987561   -0.025424
N      0.953482    2.109272   -0.746618
C      0.721984    3.463633   -0.821825
C      1.397977    3.975246   -2.016270
C      2.048852    2.829037   -2.649125
N      1.774609    1.728010   -1.882477
N      2.053556    0.304064   -1.865442
H      0.568844   -4.525002   -1.355095
H      0.606289   -2.183491   -2.119060
H      2.043355   -3.281758    2.506608
H      2.091479   -0.945246    1.734063
H      0.119288    0.961653    0.874558
H      0.129750    3.969244   -0.078080
H      1.411055    4.997771   -2.359606
H      2.647357    2.740479   -3.536250
