38

C      0.713768    3.910688    3.584073
C     -0.547533    4.536407    3.690648
C     -1.432790    3.832784    2.838241
C     -2.715553    3.830105    2.421831
S     -2.897833    2.518188    1.291259
C     -1.246547    2.020979    1.439703
C     -0.698975    0.900768    0.715430
C     -0.498514    0.903432   -0.689647
C      0.052639   -0.156764   -1.446871
N      0.176127    0.022147   -2.772506
C      0.695969   -0.948916   -3.568544
C      1.116148   -2.151998   -3.017138
C      1.685885   -3.361836   -3.465421
N      2.126798   -4.031016   -4.576703
C      2.583218   -5.267932   -4.165138
C      2.437890   -5.398793   -2.793993
C      1.870631   -4.175163   -2.405496
O      1.456035   -3.581714   -1.258053
C      0.995938   -2.347450   -1.643994
C      0.463636   -1.365464   -0.813816
C      0.273088   -1.405567    0.579160
C      0.587180   -2.464162    1.399066
S      0.194667   -2.141154    3.040080
C     -0.406989   -0.578467    2.663987
C     -0.294802   -0.300025    1.320997
C     -0.625906    2.852907    2.304091
N      0.681977    2.834567    2.698641
H      1.646618    4.154362    4.076517
H     -0.769219    5.393467    4.312701
H     -3.542316    4.476866    2.676630
H     -0.786793    1.800115   -1.242774
H      0.755802   -0.720357   -4.626432
H      2.106805   -3.656564   -5.517768
H      2.979036   -5.962056   -4.896044
H      2.701797   -6.246734   -2.179099
H      1.021951   -3.421385    1.147017
H     -0.809132    0.037008    3.457932
H      1.410725    2.193851    2.406846
