43

Si    -2.498424    4.104202   -3.047116
C     -3.469923    5.160687   -4.297472
C     -4.776186    4.816622   -4.316968
C     -5.132375    3.758172   -3.421410
C     -6.346361    3.179882   -3.171768
S     -6.196890    1.951540   -1.969118
C     -4.486926    2.181032   -1.798428
C     -3.719677    1.378610   -0.891730
C     -4.048067    0.877921    0.354699
C     -2.940915    0.131394    0.831352
C     -1.954165    0.196129   -0.129189
N     -2.453731    0.926215   -1.180457
C     -0.651760   -0.377274   -0.149219
S     -0.342471   -2.071872   -0.014139
C      1.386374   -1.895248   -0.197996
C      2.276317   -3.057241   -0.208632
C      2.122114   -4.109335    0.706391
C      2.987430   -5.206951    0.686853
C      4.019407   -5.266108   -0.246680
C      4.188253   -4.228480   -1.160112
C      3.323294   -3.130957   -1.139730
C      1.631262   -0.569482   -0.330519
C      2.700576    0.352502   -0.486760
C      2.137222    1.646105   -0.516533
N      0.752040    1.604364   -0.380208
C      0.530697    0.258659   -0.290100
C     -4.092967    3.186432   -2.634673
H     -1.961164    4.918135   -1.928954
H     -1.492823    3.228086   -3.699588
H     -2.983714    5.924558   -4.882744
H     -5.507383    5.297994   -4.956515
H     -7.310462    3.400623   -3.607614
H     -4.986722    1.033407    0.871784
H     -2.872115   -0.390319    1.777619
H     -1.976659    1.060485   -2.060899
H      1.332206   -4.081569    1.453562
H      2.854697   -6.013453    1.403353
H      4.691447   -6.120137   -0.261813
H      4.991303   -4.272370   -1.891135
H      3.467307   -2.336588   -1.868631
H      3.757393    0.129450   -0.552605
H      2.626805    2.607458   -0.606869
H      0.068639    2.349290   -0.318492
