49

C      0.175376    3.769853   -3.034833
N     -0.616629    2.546532   -2.960716
C     -1.645037    2.328554   -3.913853
C     -2.120116    3.342328   -4.767537
C     -3.142378    3.100553   -5.686511
C     -3.721847    1.842577   -5.760338
C     -3.280326    0.822992   -4.915637
C     -2.240558    1.034481   -3.990250
N     -1.777594    0.021845   -3.110490
C     -2.182127   -1.361193   -3.340967
C     -0.964374    0.330286   -1.988673
C     -0.743117   -0.580496   -0.935223
C      0.052870   -0.263376    0.178410
C      0.267319   -1.239446    1.258921
C      0.809391   -2.497952    0.989169
C      1.018678   -3.433647    2.010168
C      0.682930   -3.128377    3.352986
C      0.141864   -1.870445    3.612605
C     -0.068734   -0.924999    2.586135
S     -0.207697   -1.667889    5.279571
C      0.352461   -3.237089    5.685855
C      0.377556   -3.817522    6.970212
C      0.870659   -5.114905    7.119706
C      1.329548   -5.823118    6.019585
C      1.302185   -5.242560    4.747954
C      0.807195   -3.924906    4.560227
C      0.623691    1.010041    0.234902
C      0.409754    1.938426   -0.788041
C     -0.371547    1.623294   -1.912618
H     -0.296852    4.570416   -2.455477
H      0.313049    4.113379   -4.066341
H      1.198315    3.625098   -2.669342
H     -1.723142    4.350669   -4.719037
H     -3.492919    3.901506   -6.331786
H     -4.528418    1.653763   -6.463601
H     -3.788431   -0.133088   -4.982348
H     -3.118216   -1.581486   -2.816824
H     -1.417731   -2.076349   -3.016392
H     -2.312067   -1.584377   -4.405950
H     -1.224550   -1.553850   -0.946113
H      1.090161   -2.764399   -0.028584
H      1.446632   -4.401979    1.763387
H     -0.503697    0.042464    2.827407
H      0.018301   -3.264154    7.833490
H      0.893781   -5.570569    8.106827
H      1.712309   -6.833191    6.143555
H      1.665746   -5.811418    3.895936
H      1.243354    1.296112    1.082443
H      0.853327    2.921039   -0.667279
