69

C      0.252700    4.097337    3.060777
Si     0.893177    2.380291    2.852794
C      1.981459    1.803406    4.224592
C     -0.484493    1.120457    2.409150
C     -1.609903    0.593615    3.049187
C     -2.266116   -0.305610    2.210660
C     -3.482278   -1.084439    2.452545
C     -3.729395   -2.363677    1.939723
N     -4.838307   -3.149113    2.126749
C     -5.876233   -2.726599    2.912299
C     -7.009440   -3.632179    3.036312
C     -7.536021   -4.458742    2.061988
C     -8.644845   -5.247940    2.512195
C     -9.452242   -6.182386    1.820940
C    -10.490754   -6.844673    2.481667
C    -10.738697   -6.593799    3.824074
C     -9.957481   -5.676598    4.531055
C     -8.913718   -5.010589    3.860059
S     -7.826436   -3.852868    4.520120
C     -5.792016   -1.435764    3.493991
N     -6.704284   -0.801217    4.253530
S     -6.077813    0.676973    4.640099
N     -4.619499    0.602808    3.864627
C     -4.548716   -0.594890    3.253521
S     -1.450224   -0.446923    0.674748
C     -0.264771    0.649406    1.134361
C      0.884228    1.155222    0.446749
S      1.512175    0.826554   -1.075630
C      2.839004    1.933707   -0.836111
C      3.837604    2.097041   -1.893576
C      3.568528    2.040504   -3.266091
N      4.453178    2.177202   -4.305702
C      5.781000    2.419216   -4.075168
C      6.636358    2.527957   -5.249460
C      6.525206    1.830528   -6.437708
C      7.519393    2.181095   -7.409474
C      7.749884    1.683303   -8.714344
C      8.795877    2.190346   -9.490731
C      9.617455    3.190537   -8.989618
C      9.411977    3.701641   -7.705839
C      8.358254    3.185466   -6.926901
S      7.915164    3.658969   -5.333801
C      6.223400    2.486799   -2.728732
N      7.476173    2.661910   -2.269225
S      7.401430    2.642751   -0.620588
N      5.781538    2.409427   -0.390579
C      5.210636    2.324306   -1.607266
C      2.770746    2.540381    0.416258
C      1.656259    2.075144    1.119316
H     -0.333763    4.191922    3.982151
H     -0.394010    4.385943    2.225369
H      1.071722    4.822376    3.112733
H      2.890873    2.409307    4.290181
H      1.469598    1.869075    5.190253
H      2.287841    0.762277    4.081603
H     -1.941520    0.837878    4.051655
H     -2.979875   -2.851837    1.316002
H     -7.142848   -4.491950    1.052322
H     -9.264502   -6.387758    0.770553
H    -11.104503   -7.560053    1.940083
H    -11.547016   -7.115741    4.331956
H    -10.151787   -5.481317    5.581187
H      2.547266    1.876224   -3.612970
H      5.758331    1.083196   -6.604557
H      7.111268    0.901409   -9.116400
H      8.963566    1.798330  -10.490944
H     10.428197    3.582410   -9.599933
H     10.054636    4.485174   -7.315672
H      3.493980    3.261687    0.778328
