36

C      2.097525    1.565047    3.354934
C      2.114545    3.005063    2.833644
C      1.697269    3.067924    1.548850
C      1.373643    1.762571    1.094586
C      1.592041    0.844546    2.149530
C      1.281705   -0.453702    1.820042
S      0.769261   -0.503670    0.165806
C      0.913570    1.203796   -0.062741
C      0.599024    1.825452   -1.318649
S      1.786386    2.776920   -2.154519
C      0.731006    3.123025   -3.473901
C     -0.472879    2.529125   -3.255654
Si    -2.114958    2.422786   -4.168784
C     -2.778863    1.356496   -2.731145
C     -1.838105    1.168602   -1.779266
C     -0.571490    1.791943   -2.042347
C      1.392489   -1.651134    2.643277
N      2.318588   -1.612381    3.660897
C      2.507921   -2.679804    4.495464
C      1.833619   -3.894070    4.472237
C      0.855053   -3.973432    3.464151
N      0.060897   -5.033413    3.245092
S     -0.920199   -4.631041    1.970198
N     -0.387880   -3.097643    1.644928
C      0.606462   -2.827080    2.511661
H      1.415300    1.467669    4.203955
H      3.105495    1.243768    3.631503
H      2.424911    3.850007    3.429724
H      1.617519    3.966276    0.952920
H      1.065434    3.731155   -4.303288
H     -2.841619    3.714085   -4.255397
H     -2.057172    1.644304   -5.430983
H     -3.789920    0.982611   -2.736939
H     -2.021005    0.593752   -0.878349
H      3.282181   -2.513879    5.244758
H      2.033052   -4.698489    5.165376
