26

O      4.336082    2.993635   -1.333410
C      3.104015    3.094183   -0.806280
C      2.459881    1.775481   -0.583930
C      1.165480    1.771473   -0.034922
C      0.568133    0.546900    0.171114
C      1.251289   -0.683120   -0.166287
C      2.518187   -0.683617   -0.703792
C      3.123217    0.562760   -0.912278
C      0.368144   -1.783731    0.165776
N      0.249437   -3.089089    0.165611
C     -1.040817   -3.309500    0.704414
C     -1.675998   -2.118416    1.019983
N     -0.746177   -1.211649    0.660654
C     -0.751340    0.161933    0.715980
C     -1.863683    0.729050    1.209806
C     -2.951834   -0.186804    1.635965
C     -2.865290   -1.543252    1.546747
O      2.609151    4.177097   -0.554101
H      4.632999    3.923639   -1.423414
H      0.657141    2.696932    0.216550
H      3.024777   -1.609794   -0.954580
H      4.125873    0.588804   -1.336657
H     -1.414894   -4.318287    0.824064
H     -1.994914    1.799694    1.306913
H     -3.849764    0.278186    2.034876
H     -3.680881   -2.182914    1.867985
