35

C     -0.332556   -2.775195   -2.559119
C      0.164207   -3.958224   -3.125820
C      1.364843   -4.509798   -2.679978
C      2.085291   -3.886348   -1.661743
C      1.614691   -2.702229   -1.075331
C      0.397269   -2.142135   -1.526613
C     -0.091467   -0.946189   -0.944032
C     -1.307798   -0.386899   -1.392975
C     -2.017958   -1.027007   -2.418091
C     -1.536810   -2.205800   -2.993633
C     -1.778863    0.798363   -0.804554
C     -1.068116    1.443693    0.220148
C     -1.575268    2.684716    0.824683
C     -2.849865    2.740909    1.400065
C     -3.283436    3.932969    1.959292
N     -2.547096    5.062826    1.983128
C     -1.321544    4.995556    1.423809
C     -0.799657    3.849562    0.844104
C      0.139692    0.872701    0.652346
C      0.637333   -0.312481    0.086054
C      1.841774   -0.881884    0.521979
C      2.324315   -2.061254   -0.051211
H     -0.382383   -4.460079   -3.921117
H      1.739686   -5.427038   -3.126797
H      3.019444   -4.332864   -1.328426
H     -2.956254   -0.612424   -2.780354
H     -2.113426   -2.676193   -3.787065
H     -2.711467    1.234968   -1.159366
H     -3.494821    1.868418    1.426139
H     -4.264883    4.010075    2.418375
H     -0.748556    5.917972    1.451624
H      0.192307    3.872908    0.404388
H      0.696966    1.354540    1.454557
H      2.418315   -0.411244    1.315459
H      3.262514   -2.475649    0.311209
