46

C      0.913643    4.734562    5.434279
S     -0.612698    3.954927    5.552717
C     -0.296390    2.962872    4.183478
C      0.946481    3.211362    3.646690
C      1.480973    2.558144    2.519732
C      2.772165    3.055153    2.197279
C      3.450973    4.081580    2.931431
C      2.911072    4.727793    4.062388
C      1.640044    4.247684    4.375837
C      0.804687    1.529469    1.751908
C      0.309154    1.751900    0.453758
C     -0.351139    0.775388   -0.338324
C     -0.801799    1.156320   -1.594746
C     -1.448497    0.252588   -2.443484
C     -1.678841   -1.097227   -2.108327
C     -1.287967   -1.491131   -0.805805
C     -1.636099   -2.800388   -0.454621
N     -2.305408   -3.693969   -1.221281
C     -2.644727   -3.355033   -2.458068
C     -3.338602   -4.365560   -3.167264
C     -3.788125   -4.287884   -4.496999
C     -3.420880   -3.081902   -5.068261
C     -3.704589   -2.813768   -6.384738
S     -3.067949   -1.297833   -6.854322
C     -2.409314   -1.018440   -5.288270
C     -2.714222   -2.015206   -4.388206
C     -2.316890   -2.067129   -2.995171
C     -0.595386   -0.565593    0.080939
C     -0.090817   -0.843204    1.417556
N     -0.164774   -2.015326    2.074433
S      0.556846   -1.821764    3.546779
N      1.012260   -0.239388    3.448957
C      0.613487    0.215589    2.247968
H      1.182475    5.502427    6.146426
H     -1.047187    2.253151    3.866040
H      3.295701    2.625789    1.341209
H      4.445541    4.376560    2.594626
H      3.439575    5.500803    4.604182
H      0.441068    2.756032    0.040978
H     -0.669332    2.178924   -1.947820
H     -1.813098    0.668174   -3.373958
H     -1.403870   -3.214137    0.521293
H     -3.539890   -5.294564   -2.628488
H     -4.312107   -5.096381   -4.988277
H     -4.229357   -3.427113   -7.104832
H     -1.818372   -0.126504   -5.176998
