35

C     -1.177349    5.020953    0.936876
C     -1.115715    3.561845    0.680033
C     -1.807368    2.826869   -0.304831
C     -1.414030    1.519223   -0.132841
N     -1.758892    0.353283   -0.802351
C     -2.632662    0.312567   -1.862689
O     -3.244949    1.245498   -2.361696
C     -2.833219   -1.062994   -2.397151
C     -2.547324   -1.343991   -3.854429
C     -1.664033   -1.934858   -2.795998
N     -0.514197    1.527689    0.930615
C      0.167316    0.430432    1.480048
N      0.020784   -0.798679    1.021203
C      0.821920   -1.651939    1.765729
C      0.940088   -3.044373    1.579864
C      1.789483   -3.786991    2.406918
C      2.519230   -3.161013    3.412576
C      2.420407   -1.781553    3.618208
C      1.565057   -1.044541    2.782758
S      1.234102    0.646790    2.787516
N     -0.332599    2.780189    1.430549
H     -1.860311    5.516390    0.239400
H     -1.531182    5.216971    1.954152
H     -0.187287    5.473343    0.820301
H     -2.502393    3.207329   -1.041289
H     -1.326432   -0.513431   -0.482357
H     -3.708524   -1.556005   -1.985572
H     -3.227892   -2.001019   -4.383341
H     -2.152760   -0.535903   -4.461411
H     -1.739859   -2.999882   -2.609008
H     -0.657151   -1.540705   -2.712703
H      0.370955   -3.533299    0.795586
H      1.878503   -4.861258    2.261079
H      3.176311   -3.750903    4.048850
H      2.990692   -1.294358    4.403647
