46

C     -0.128067   -0.198043    7.863511
C     -0.174893    0.438195    6.506149
C      0.590989   -0.076676    5.455471
C      0.521580    0.495544    4.181607
C     -0.313843    1.592834    3.929222
C     -1.102011    2.085156    4.980063
C     -1.033932    1.513086    6.254950
C     -0.370557    2.174485    2.566877
C     -0.337415    3.509956    2.413294
N     -0.383944    4.067341    1.166656
C     -0.473319    3.299213    0.030696
C     -0.446274    1.779195    0.291035
C     -0.474066    0.825158   -0.856035
C     -1.032378   -0.444917   -0.654856
C     -1.065948   -1.381918   -1.693979
C     -0.541617   -1.069279   -2.956232
C      0.042520    0.192705   -3.139793
C      0.077553    1.132603   -2.101924
C     -0.553754   -2.042798   -4.074329
C     -1.675243   -2.741566   -4.335514
N     -1.716338   -3.638303   -5.369118
C     -0.626869   -3.852774   -6.175898
C      0.591580   -3.004584   -5.814784
C      1.810492   -3.186265   -6.669951
N      0.600609   -2.157419   -4.824466
O     -0.603688   -4.639898   -7.107666
N     -0.412767    1.295040    1.505781
O     -0.582492    3.786860   -1.082458
H      0.862301   -0.620843    8.062534
H     -0.873597   -0.996440    7.928627
H     -0.329306    0.539491    8.647611
H      1.246103   -0.929704    5.617220
H      1.125384    0.076965    3.378447
H     -1.793584    2.907590    4.814559
H     -1.662767    1.909527    7.049045
H     -0.272893    4.204404    3.244383
H     -0.387365    5.071242    1.041802
H     -1.441389   -0.717048    0.316691
H     -1.488876   -2.363918   -1.495254
H      0.482713    0.452220   -4.101518
H      0.557995    2.088384   -2.292323
H     -2.591485   -2.633257   -3.764134
H     -2.554485   -4.167727   -5.572204
H      2.619029   -2.535505   -6.325544
H      2.144419   -4.225890   -6.615138
H      1.570639   -2.935116   -7.706659
