41

C      4.107251    1.739466    5.325338
S      4.210017    0.067569    4.942247
C      3.039126    0.205433    3.689767
C      2.588086    1.498489    3.551011
C      1.627736    1.917012    2.610397
C      1.343908    3.302425    2.741695
C      1.963245    4.168026    3.701159
C      2.930329    3.742918    4.635425
C      3.204302    2.381026    4.514093
C      0.995866    1.055477    1.619851
C     -0.364549    0.745206    1.704960
C     -0.972855   -0.076430    0.749109
C     -0.248012   -0.617550   -0.333568
C      1.120328   -0.297356   -0.419146
C      1.832168   -0.826535   -1.484127
N      1.295408   -1.622164   -2.430149
C     -0.022129   -1.930312   -2.345718
C     -0.622483   -2.759726   -3.314975
C      0.103579   -3.300158   -4.399700
C     -0.503215   -4.121246   -5.353969
C     -1.855427   -4.424770   -5.249066
C     -2.599749   -3.907429   -4.190743
C     -1.992333   -3.080057   -3.227619
C     -2.703615   -2.549119   -2.163007
N     -2.166306   -1.753085   -1.217346
C     -0.848675   -1.446649   -1.303019
C      1.728050    0.529854    0.545977
H      4.711574    2.146776    6.124114
H      2.754437   -0.678118    3.135219
H      0.612263    3.747348    2.064588
H      1.667498    5.217872    3.705450
H      3.385929    4.412061    5.353140
H     -0.965899    1.134865    2.524483
H     -2.034806   -0.298292    0.854105
H      2.891857   -0.622360   -1.616337
H      1.165225   -3.076829   -4.503764
H      0.085093   -4.520548   -6.176320
H     -2.329658   -5.063258   -5.989973
H     -3.657354   -4.153236   -4.120887
H     -3.763257   -2.752788   -2.030865
H      2.786746    0.772922    0.458827
