42

C      5.048563   -3.442168   -2.985682
C      4.879486   -3.944171   -4.281129
C      3.605101   -3.507924   -4.671489
C      2.771645   -3.582235   -5.728637
S      1.329692   -2.703648   -5.318909
C      1.902428   -2.266417   -3.728492
C      1.129106   -1.481594   -2.807979
N     -0.056275   -1.004066   -3.132481
C     -0.586776   -0.289241   -2.075693
C      0.187167   -0.218730   -0.931046
S      1.642107   -1.084254   -1.217293
C     -0.111850    0.458187    0.299403
S     -1.339614    1.684605    0.446710
C     -1.054965    1.949302    2.141892
C     -1.831569    2.922796    2.876772
C     -1.940893    4.296196    2.540190
C     -2.704846    5.253595    3.297613
C     -3.439042    4.941290    4.464919
C     -3.321424    3.591747    4.770258
C     -3.919144    2.953879    5.825741
N     -3.559703    1.625221    5.744795
C     -2.741891    1.415585    4.652774
C     -2.566136    2.629373    4.031699
C     -0.058608    1.113986    2.513483
C      0.693031    0.774438    3.651644
C      1.575333   -0.220609    3.218583
O      1.449470   -0.545749    1.881816
C      0.449204    0.308912    1.520688
C      3.137644   -2.797514   -3.590183
O      3.972778   -2.713523   -2.514968
H      5.866564   -3.517435   -2.280798
H      5.595594   -4.535905   -4.832844
H      2.885089   -4.067215   -6.687639
H     -1.563571    0.162881   -2.201638
H     -1.410881    4.664017    1.660699
H     -2.715219    6.285783    2.945123
H     -4.011590    5.667946    5.022831
H     -4.567526    3.303904    6.617326
H     -3.862411    0.903933    6.386549
H     -2.378879    0.421930    4.428152
H      0.624122    1.178039    4.651775
H      2.341234   -0.784557    3.734971
