23

C     -1.651969   -3.147709   -1.185202
C     -0.610625   -3.607066   -0.406059
N      0.079084   -2.796768    0.425565
C     -0.303493   -1.504158    0.458151
C      0.362385   -0.613367    1.293002
C      0.006691    0.740438    1.365619
C      0.709083    1.661135    2.243910
C      0.289389    2.873087    2.843326
N      1.243715    3.444703    3.582376
N      2.281176    2.602564    3.460277
C      2.014196    1.522519    2.668707
C     -1.051678    1.191351    0.573969
C     -1.728002    0.304740   -0.269087
C     -1.373709   -1.034307   -0.342160
N     -2.050211   -1.857721   -1.167130
H     -2.199157   -3.806297   -1.849617
H     -0.298809   -4.644814   -0.427605
H      1.170394   -1.006513    1.905015
H     -0.674316    3.361333    2.775907
H      3.144784    2.829534    3.942532
H      2.772267    0.776020    2.479616
H     -1.360342    2.234126    0.587223
H     -2.548107    0.667016   -0.884433
