36

O     -3.484678    3.851415   -2.863104
C     -2.997108    2.754461   -3.110237
C     -3.601620    1.877582   -4.143286
C     -3.048482    0.679723   -4.360931
N     -1.964484    0.191899   -3.682991
C     -1.294710    0.980060   -2.735306
C     -0.172869    0.494070   -2.057212
C      0.467373    1.267881   -1.071437
C      1.650955    0.754761   -0.379844
C      2.928226    1.045838   -0.900638
C      4.076959    0.574181   -0.288143
C      3.983288   -0.203193    0.860885
C      2.711563   -0.500275    1.393502
S      2.418568   -1.444729    2.798555
C      0.742197   -1.259054    2.667408
N     -0.069863   -1.834987    3.580067
C     -1.380494   -1.612776    3.376507
C     -1.908592   -0.869537    2.340509
C     -1.033172   -0.295808    1.420905
C      0.362372   -0.489020    1.573164
C      1.523806   -0.038873    0.806730
C     -0.033387    2.546864   -0.776240
C     -1.161315    3.039018   -1.434773
C     -1.789568    2.253192   -2.403723
H     -4.462490    2.248990   -4.681135
H     -3.447293    0.004916   -5.113263
H     -1.521499   -0.656047   -4.017968
H      0.210386   -0.498064   -2.286372
H      3.019064    1.651570   -1.801293
H      5.053360    0.809640   -0.704639
H      4.883500   -0.576387    1.343237
H     -2.037043   -2.073309    4.111122
H     -2.980612   -0.734121    2.245866
H     -1.439766    0.292859    0.605941
H      0.452364    3.162962   -0.021062
H     -1.547864    4.026457   -1.192703
