37

C     -2.762657    5.315656   -2.830159
C     -1.457538    5.457020   -3.232195
O     -0.712969    4.409651   -2.797751
C     -1.538666    3.572355   -2.103278
C     -2.817027    4.101683   -2.102465
C     -0.956456    2.370880   -1.538469
C     -1.701925    1.414694   -0.793520
C     -1.204258    0.214911   -0.209045
N     -2.080508   -0.542617    0.450955
C     -1.641031   -1.691681    1.019799
C     -0.330105   -2.163625    0.977143
C      0.047636   -3.367992    1.593619
N     -0.847694   -4.134250    2.263419
C     -0.429706   -5.285053    2.838530
C      0.871883   -5.739123    2.787639
C      1.798320   -4.964586    2.105367
C      1.388334   -3.765494    1.499868
C      2.262266   -2.944612    0.803143
N      1.900719   -1.788245    0.210963
C      0.613149   -1.388270    0.290280
C      0.161171   -0.185165   -0.307315
C      0.906197    0.768257   -1.050543
C      2.241993    0.742230   -1.361719
O      2.570514    1.846959   -2.092189
C      1.433456    2.586829   -2.249719
C      0.377542    1.968427   -1.627677
H     -3.573145    6.000578   -3.035205
H     -0.924687    6.205014   -3.802549
H     -3.688302    3.666515   -1.633506
H     -2.767215    1.602268   -0.643531
H     -2.417461   -2.252032    1.539355
H     -1.200347   -5.848079    3.358241
H      1.156486   -6.669591    3.265681
H      2.832792   -5.294135    2.046454
H      3.314148   -3.196834    0.694495
H      3.058680    0.062771   -1.161448
H      1.560146    3.497984   -2.816922
