42

Si     5.925055    2.532714    2.102695
C      6.626899    2.578792    0.368874
C      5.804091    1.954166   -0.493627
C      6.036478    1.817797   -1.916201
C      5.120866    1.172394   -2.661501
C      3.907984    0.600149   -2.079174
C      3.607625    0.685289   -0.759433
C      2.406962    0.056894   -0.308553
S      0.844642    0.681409   -0.719945
C     -0.003586   -0.534130    0.163375
C     -1.435598   -0.592712    0.252066
C     -2.199266   -0.733487    1.393000
C     -3.599171   -0.764629    1.114703
C     -3.878383   -0.646371   -0.233718
S     -2.428545   -0.496152   -1.139435
C     -5.170829   -0.640076   -0.870555
C     -5.519621   -0.460929   -2.199159
C     -6.929807   -0.544981   -2.303022
C     -7.416404   -0.774812   -1.038324
N     -6.348312   -0.830953   -0.181057
C      0.883489   -1.390054    0.761963
S      0.653666   -2.857130    1.801028
C      2.407791   -2.936817    1.828889
C      3.083916   -1.944930    1.112018
C      2.202160   -1.029542    0.479777
C      4.571043    1.384607    0.103761
C      4.456129    1.588084    1.432690
H      5.556719    3.879651    2.600868
H      6.749833    1.711999    3.022113
H      7.565108    3.062384    0.149442
H      6.932653    2.238098   -2.357986
H      5.262790    1.055957   -3.731671
H      3.250692    0.083283   -2.774715
H     -1.780642   -0.805168    2.389771
H     -4.351759   -0.866580    1.885350
H     -4.832786   -0.285369   -3.017498
H     -7.521473   -0.448249   -3.204108
H     -8.426678   -0.903753   -0.673925
H     -6.417924   -0.993573    0.813307
H      2.854962   -3.745473    2.391024
H      4.165321   -1.901481    1.055746
H      3.649602    1.279133    2.078230
