39

C      6.133749    3.093663    0.650678
C      6.313143    3.819586    1.841020
C      5.086870    3.765987    2.537831
C      4.554436    4.214037    3.688593
S      2.921616    3.659666    3.747162
C      3.005849    2.828680    2.197195
C      1.830212    2.113955    1.671499
C      1.787008    1.429370    0.467604
C      0.627145    0.786331    0.060667
N      0.631003    0.138947   -1.106759
C     -0.509088   -0.483649   -1.489664
C     -1.706026   -0.508356   -0.759941
C     -1.686623    0.179243    0.464796
N     -2.777947    0.226602    1.255904
C     -3.914037   -0.396232    0.870000
C     -4.070957   -1.107153   -0.307769
C     -5.322141   -1.719891   -0.601063
C     -5.575244   -2.457567   -1.764761
C     -4.495725   -2.568422   -2.662510
N     -4.532949   -3.229759   -3.828479
S     -3.032887   -3.069617   -4.510592
N     -2.271703   -2.155618   -3.358247
C     -3.157119   -1.925768   -2.371936
C     -2.929571   -1.168301   -1.156083
C     -0.508070    0.828119    0.870107
C     -0.389204    1.533816    2.063070
N      0.737263    2.163533    2.467607
C      4.266542    3.014729    1.716493
N      4.842414    2.575009    0.552635
H      6.835301    2.900379   -0.150984
H      7.226471    4.315253    2.142239
H      4.985325    4.808949    4.480449
H      2.633415    1.365156   -0.195371
H     -0.409089   -0.981104   -2.449498
H     -4.730514   -0.293575    1.582837
H     -6.143859   -1.619136    0.111754
H     -6.536235   -2.915300   -1.966845
H     -1.224307    1.618377    2.755375
H      4.450916    2.020402   -0.192258
