39

C     -6.122915    4.369071    3.067903
C     -5.427649    4.654452    4.218813
S     -3.823773    4.072819    4.157051
C     -4.027821    3.424999    2.575723
C     -5.319136    3.663252    2.127302
C     -2.939698    2.725509    1.867211
C     -1.645413    2.578159    2.360416
C     -0.698337    1.891406    1.596324
C     -1.053243    1.365152    0.354222
C     -2.363815    1.565740   -0.061827
N     -3.304842    2.222146    0.660664
C     -0.097301    0.640595   -0.460174
S      0.367623    1.149407   -2.045145
C      1.490303   -0.166319   -2.271298
C      2.275095   -0.315100   -3.462864
S      3.937799   -0.792670   -3.398793
C      4.139549   -0.719354   -5.105573
C      2.971182   -0.349805   -5.705277
S      2.568912   -0.117764   -7.445629
C      0.958345    0.271763   -6.863016
C      0.772374    0.224796   -5.476396
C      1.956664   -0.132001   -4.771115
C      1.449518   -0.916445   -1.143945
C      2.006330   -2.088729   -0.564525
C      1.419702   -2.247068    0.708609
N      0.505196   -1.233472    0.981471
C      0.584648   -0.485396   -0.159905
H     -7.155942    4.650667    2.905407
H     -5.784618    5.177236    5.095515
H     -5.667653    3.338613    1.153142
H     -1.349236    2.988692    3.319424
H      0.316973    1.788665    1.972799
H     -2.716917    1.185429   -1.017349
H      5.078993   -0.946774   -5.590090
H      0.212612    0.519330   -7.606338
H     -0.185667    0.439079   -5.019424
H      2.738418   -2.756158   -1.000265
H      1.582218   -3.019938    1.449286
H     -0.082497   -1.074395    1.791282
