46

C      3.125916   -4.323761    4.623294
C      4.465745   -3.700793    4.902866
C      4.643486   -2.656834    4.083190
C      5.755942   -1.748156    3.972107
C      5.676044   -0.767101    3.051413
C      4.507381   -0.610360    2.176144
C      3.424852   -1.427561    2.233968
C      2.355121   -1.196830    1.328329
C      1.781088   -1.947472    0.324366
C      0.709457   -1.193751   -0.227602
C     -0.212360   -1.416608   -1.249274
N     -1.150029   -0.482686   -1.552993
C     -1.232727    0.694044   -0.883520
C     -0.333879    0.983686    0.160774
C     -0.421654    2.196266    0.850203
N     -1.335156    3.143826    0.579143
C     -2.201284    2.871192   -0.423583
C     -3.184125    3.952227   -0.675486
C     -4.122316    3.857767   -1.633645
C     -4.169098    2.666877   -2.437274
C     -5.012380    2.368655   -3.434605
C     -4.676049    1.010897   -3.977901
C     -3.511262    0.601050   -3.124023
C     -3.227120    1.568394   -2.235486
C     -2.193353    1.671699   -1.180141
C      0.642753    0.009266    0.472400
N      1.646963   -0.022375    1.417005
C      3.477696   -2.504242    3.217352
C      2.584291   -3.459445    3.518270
H      3.235263   -5.361084    4.293585
H      2.481378   -4.282424    5.506244
H      5.160046   -4.051678    5.650264
H      6.620212   -1.866120    4.614388
H      6.490839   -0.060397    2.926098
H      4.568587    0.197873    1.451621
H      2.104015   -2.934007    0.016773
H     -0.230472   -2.324362   -1.841751
H      0.255122    2.448989    1.659939
H     -3.109851    4.830802   -0.044397
H     -4.835602    4.654792   -1.808387
H     -5.812174    2.992051   -3.803024
H     -4.390940    1.067563   -5.032462
H     -5.515038    0.319248   -3.858252
H     -2.995684   -0.341058   -3.230963
H      1.834874    0.705001    2.093034
H      1.621263   -3.599127    3.051849
