27

O     -3.433731    2.312096    0.492684
C     -2.317685    1.855341    0.349038
O     -1.247606    2.042097    1.171430
C     -0.056182    1.403048    0.668824
N      0.437876    0.486932    1.675161
C      1.779463    0.144074    1.571088
C      2.797878    1.089520    1.654999
C      4.126642    0.676000    1.556895
C      4.399093   -0.673081    1.387608
Br     6.173481   -1.289836    1.252795
C      3.332058   -1.551817    1.326434
N      2.034059   -1.168238    1.413187
C     -0.533453    0.716097   -0.558401
C      0.135701   -0.084286   -1.472039
C     -0.578011   -0.587903   -2.565268
C     -1.939322   -0.285306   -2.736014
C     -2.602180    0.523808   -1.813336
C     -1.869353    1.004561   -0.741567
H      0.647804    2.205562    0.420337
H     -0.071817   -0.393330    1.644040
H      2.570603    2.136741    1.825966
H      4.927666    1.405935    1.627934
H      3.482611   -2.620607    1.203899
H      1.187075   -0.327994   -1.345706
H     -0.074518   -1.223968   -3.291046
H     -2.478477   -0.686955   -3.591383
H     -3.653982    0.767900   -1.926267
