35

C     -6.271459    2.484764   -2.701235
C     -5.761938    3.074424   -1.552902
C     -4.563741    2.609920   -1.000067
C     -3.833610    1.539257   -1.576959
C     -4.376391    0.960697   -2.742705
C     -5.582245    1.431601   -3.295090
C     -3.679320   -0.089519   -3.325976
N     -2.520014   -0.596688   -2.858104
C     -1.994495   -0.055803   -1.751762
C     -0.798345   -0.587019   -1.278205
C     -0.130538   -0.119508   -0.127398
C      1.143208   -0.739758    0.313577
C      1.870152   -0.348069    1.430254
N      3.032038   -0.930073    1.813616
C      3.480689   -1.935225    1.056333
N      4.628055   -2.531516    1.409940
C      5.056027   -3.542345    0.627243
C      4.355702   -3.951477   -0.485435
N      3.200170   -3.365635   -0.858554
C      2.754237   -2.357715   -0.095581
N      1.607705   -1.760793   -0.447689
C     -0.740845    0.942732    0.548920
C     -1.944781    1.496963    0.094981
C     -2.599617    1.014697   -1.061182
H     -7.201970    2.842550   -3.133974
H     -6.293332    3.897741   -1.081914
H     -4.208547    3.105890   -0.101049
H     -5.991064    0.976788   -4.195235
H     -4.044832   -0.578169   -4.225925
H     -0.369271   -1.413970   -1.846674
H      1.554884    0.459715    2.080054
H      5.985073   -4.016024    0.924153
H      4.702738   -4.764892   -1.112842
H     -0.307036    1.375519    1.446277
H     -2.363025    2.319805    0.668510
