35

Cl     3.071881    3.552916    3.592218
C      2.334719    2.246546    2.749825
C      2.947582    1.723571    1.612688
C      2.344635    0.669175    0.922524
C      1.131372    1.716942    3.211267
C      0.528505    0.661373    2.522894
C      1.121877    0.142910    1.363657
C      0.485041   -0.966852    0.639740
C      0.992152   -2.203472    0.842624
C      0.394078   -3.351728    0.186256
C     -0.679656   -3.222809   -0.611536
C     -1.235647   -1.934226   -0.825062
C     -2.310400   -1.448983   -1.524978
N     -2.398484   -0.093579   -1.396735
C     -1.375224    0.278882   -0.643083
C     -1.094710    1.675114   -0.318144
C     -0.037688    2.355860   -0.934796
C      0.221328    3.690708   -0.616862
C     -0.584790    4.357265    0.305037
C     -1.658547    3.696073    0.899820
C     -1.918184    2.361344    0.583036
N     -0.634987   -0.828345   -0.216197
H      3.888083    2.134296    1.255982
H      2.826389    0.271387    0.031953
H      0.654576    2.123416    4.098895
H     -0.413038    0.257112    2.888587
H      1.839001   -2.385565    1.498517
H      0.837384   -4.326624    0.366414
H     -1.125192   -4.088111   -1.092617
H     -3.027195   -2.004352   -2.115503
H      0.587931    1.849546   -1.665593
H      1.048681    4.211329   -1.091533
H     -0.383197    5.396672    0.551141
H     -2.297825    4.220766    1.604738
H     -2.766361    1.855501    1.038679
