33

C     -0.498681    3.931503    2.776501
C     -0.831275    2.911418    1.744629
N     -1.574107    3.170213    0.685112
C     -1.561749    2.025590   -0.067485
C     -2.201016    1.831046   -1.364694
O     -2.828546    2.697064   -1.966489
O     -2.025605    0.544607   -1.924614
C     -1.414292   -0.527716   -1.214296
C     -1.465893   -1.777046   -1.830775
C     -0.965399   -2.884136   -1.152976
C     -0.443631   -2.733884    0.132979
C     -0.395366   -1.472355    0.741027
C     -0.843409   -0.341652    0.057551
C     -0.857622    1.021917    0.569714
N     -0.300811    1.619980    1.691466
C      0.705077    1.100085    2.546129
C      0.581416    1.211080    3.935387
C      1.590676    0.713541    4.761756
C      2.721751    0.115890    4.205780
C      2.848944    0.011714    2.821154
C      1.843557    0.503319    1.987560
H     -1.037385    3.732465    3.707006
H      0.576015    3.969678    2.976579
H     -0.799651    4.926188    2.430307
H     -1.907256   -1.887538   -2.817013
H     -1.002754   -3.868074   -1.614145
H     -0.081859   -3.606098    0.673650
H     -0.022344   -1.415803    1.758644
H     -0.303506    1.641878    4.396081
H      1.493743    0.787282    5.842501
H      3.506720   -0.267802    4.853256
H      3.736053   -0.446548    2.390366
H      1.975717    0.436256    0.909525
