38

C     -2.163781    0.643216   -1.441581
N     -0.790422    0.223446   -1.555041
C      0.307647    1.024299   -1.701913
S      0.282829    2.746998   -1.598327
C      1.944426    3.047420   -0.916136
C      2.016604    2.549138    0.522250
O      1.618083    3.249808    1.451586
N      2.530402    1.270660    0.637371
C      2.720485    0.519610    1.818323
C      2.457201    0.991851    3.107536
C      2.675593    0.166702    4.218144
C      3.155331   -1.127071    4.037662
F      3.357696   -1.908486    5.106346
C      3.430782   -1.615424    2.768590
C      3.211330   -0.788536    1.672142
F      3.500885   -1.254673    0.445505
N      1.382117    0.289428   -1.867608
N      0.996750   -1.023886   -1.790479
C     -0.308483   -1.070126   -1.565313
C     -1.086316   -2.286875   -1.376800
C     -0.996657   -3.337237   -2.294337
C     -1.741344   -4.499149   -2.092842
C     -2.551696   -4.574982   -0.970123
N     -2.656283   -3.587931   -0.052662
C     -1.909976   -2.477877   -0.269453
H     -2.831793   -0.158987   -1.761290
H     -2.356461    0.900079   -0.397020
H     -2.337759    1.507550   -2.087609
H      2.135302    4.125461   -0.914180
H      2.716506    2.581733   -1.537274
H      2.672068    0.744589   -0.229227
H      2.085890    1.996652    3.286068
H      2.470913    0.529181    5.221858
H      3.814955   -2.619051    2.633610
H     -0.344741   -3.255101   -3.163495
H     -1.687444   -5.326309   -2.793787
H     -3.150847   -5.459518   -0.770410
H     -1.992240   -1.728042    0.510554
