44

C      3.909891   -0.701484   -4.138472
C      4.946452   -0.721016   -5.266931
C      5.733083    0.378592   -5.232040
C      5.337802    1.197932   -4.146674
C      5.745917    2.384608   -3.622292
S      4.769140    2.767523   -2.251359
C      3.820156    1.319209   -2.391001
C      4.253777    0.590051   -3.471474
C      2.735121    1.048356   -1.447931
C      2.901691    1.184166   -0.067672
N      1.937227    0.929947    0.847110
C      0.754051    0.519417    0.326514
C     -0.270238    0.245520    1.228807
N     -0.278013    0.327744    2.594664
C     -1.500475   -0.034960    3.101294
C     -1.912515   -0.085706    4.434839
C     -3.219951   -0.490440    4.698326
C     -4.099449   -0.836525    3.669426
C     -5.410187   -1.239836    3.970341
C     -6.303995   -1.589169    2.958677
C     -5.899695   -1.540170    1.630208
C     -4.600047   -1.141796    1.307793
C     -3.674660   -0.782792    2.313452
C     -2.328427   -0.367605    2.021824
C     -1.533109   -0.185402    0.824925
C     -1.746850   -0.339149   -0.554266
N     -0.761879   -0.078988   -1.457815
C      0.444647    0.336945   -1.027290
C      1.479790    0.616259   -1.907225
H      4.048011   -1.554655   -3.468599
H      2.896394   -0.694007   -4.548412
H      5.023065   -1.519339   -5.990133
H      6.538167    0.604103   -5.917048
H      6.538961    3.044761   -3.943516
H      3.851008    1.500394    0.358222
H      0.523325    0.620235    3.137240
H     -1.242183    0.180121    5.246589
H     -3.547331   -0.532042    5.735729
H     -5.748723   -1.285456    5.003387
H     -7.315002   -1.898867    3.209881
H     -6.595251   -1.811832    0.840191
H     -4.331288   -1.118855    0.259957
H     -2.683583   -0.666474   -0.986076
H      1.290929    0.505535   -2.971719
