40

Si     2.871202   -0.769357    3.258510
C      2.179256    0.716336    2.381335
C      1.238990    0.369382    1.476115
C      0.644427    1.295324    0.510165
C     -0.093366    0.762494   -0.487115
C     -0.416081   -0.678325   -0.565217
C     -1.159512   -1.142834   -1.637222
N     -1.603911   -2.409662   -1.766891
C     -1.403902   -3.263151   -0.762796
C     -1.979977   -4.525409   -0.960614
C     -1.979742   -5.571759   -0.029837
C     -1.384325   -5.265681    1.203330
N     -1.334881   -6.098708    2.253149
S     -0.614938   -5.259900    3.483219
N     -0.317309   -3.820992    2.728647
C     -0.737641   -3.920478    1.454335
C     -0.679330   -2.900146    0.416884
C     -0.068288   -1.600627    0.445972
C      0.933375   -1.088779    1.425575
C      1.762590   -1.824164    2.194964
C      0.816515    2.719585    0.499982
S      0.146284    3.675049    1.785437
C      0.720149    5.146674    1.121339
C      1.393730    4.935126   -0.052047
N      1.943190    5.945966   -0.781117
C      2.548709    5.457373   -1.898216
C      2.602533    4.106021   -2.261029
N      2.058137    3.080229   -1.551167
C      1.447107    3.539582   -0.418136
H      2.503024   -0.806337    4.694451
H      4.309084   -0.981571    2.963833
H      2.591547    1.697019    2.557096
H     -0.526361    1.399332   -1.255080
H     -1.437566   -0.487878   -2.459541
H     -2.484494   -4.703404   -1.913155
H     -2.447389   -6.527959   -0.227630
H      1.852927   -2.894376    2.251271
H      0.533994    6.088286    1.616869
H      3.013808    6.209368   -2.529728
H      3.109993    3.807746   -3.174379
