28

O     -0.320502    1.706383    1.539287
C     -0.608452    0.870620    0.690246
C     -1.681866    1.136749   -0.284973
C     -2.395110    2.341342   -0.249881
C     -3.408554    2.575622   -1.181693
C     -3.696192    1.603323   -2.136844
O     -4.677058    1.790849   -3.064837
C     -2.990314    0.404488   -2.176412
C     -1.979232    0.172644   -1.245023
O     -1.312779   -1.022315   -1.326211
C     -0.317762   -1.261492   -0.409478
C      0.082251   -0.446182    0.579746
C      1.180478   -0.843263    1.480994
C      1.175195   -2.093971    2.119402
C      2.222805   -2.468457    2.965023
C      3.286431   -1.596783    3.186071
C      3.301670   -0.349581    2.566141
C      2.254685    0.025131    1.720071
H     -2.162307    3.093728    0.501051
H     -3.956191    3.512592   -1.146151
H     -5.084377    2.661482   -2.922237
H     -3.227989   -0.342137   -2.928530
H      0.122278   -2.231957   -0.607567
H      0.348600   -2.786249    1.975466
H      2.204475   -3.438105    3.455849
H      4.099394   -1.885306    3.847243
H      4.124841    0.337551    2.744313
H      2.283482    1.008296    1.253850
