40

C     -3.975366   -4.398072   -1.862409
C     -4.775042   -5.325071   -0.991738
C     -4.447229   -5.133137    0.292883
C     -3.442891   -4.104488    0.381986
C     -3.141711   -3.652209   -0.847421
C     -2.194701   -2.632742   -1.193347
C     -1.359490   -1.884392   -0.179059
C     -0.554998   -0.953161   -1.046702
C     -0.890723   -1.152549   -2.333080
C     -1.894881   -2.181428   -2.422632
C      0.427235    0.005309   -0.540529
C      0.704516    0.135732    0.815208
C      1.657782    1.070070    1.230236
C      2.324268    1.871704    0.297041
C      1.970088    1.667522   -1.035328
N      1.056354    0.762052   -1.468537
C      3.341934    2.844447    0.704596
C      4.383020    2.533518    1.618152
C      5.378275    3.450849    2.033792
C      5.432582    4.776209    1.578983
C      4.424859    5.161676    0.665037
N      4.300980    6.379796    0.116413
S      2.967275    6.318977   -0.867766
N      2.490472    4.746843   -0.648244
C      3.358049    4.186729    0.214109
H     -3.351083   -4.966220   -2.559504
H     -4.636006   -3.723959   -2.417018
H     -5.501497   -6.034108   -1.358350
H     -4.858888   -5.655867    1.142835
H     -3.019515   -3.773161    1.317792
H     -1.996166   -1.326700    0.516743
H     -0.709229   -2.570656    0.374766
H     -0.481253   -0.629486   -3.185360
H     -2.318024   -2.511228   -3.359221
H      0.197074   -0.468637    1.558665
H      1.861538    1.172492    2.293691
H      2.434477    2.238344   -1.836436
H      4.439049    1.520591    2.022451
H      6.138891    3.109974    2.737218
H      6.198952    5.469731    1.903596
