42

C      1.835768    4.698247   -0.006697
C      0.463703    4.965511   -0.626574
C     -0.246805    3.823192   -0.756768
C      0.520013    2.732013   -0.269161
C      1.769420    3.219140    0.192926
C      2.567957    2.233652    0.720509
S      1.743904    0.711581    0.612065
C      0.333865    1.386383   -0.125611
C     -0.790218    0.582932   -0.507313
S     -1.504913   -0.608305    0.541943
C     -2.730121   -1.059641   -0.600319
C     -3.729247   -2.054194   -0.336830
S     -5.408400   -1.697627   -0.535406
C     -5.895654   -3.260676   -0.029044
C     -4.813949   -4.042458    0.281008
N     -4.933898   -5.331836    0.702635
C     -3.707851   -5.876527    0.935457
C     -2.485917   -5.215660    0.762907
N     -2.343140   -3.931388    0.338086
C     -3.557506   -3.351136    0.104906
C     -2.555777   -0.311638   -1.714027
N     -3.281743   -0.347000   -2.872517
C     -2.630706    0.617214   -3.637371
C     -1.549289    1.191053   -2.937468
C     -1.502934    0.577239   -1.657284
C      3.889821    2.363302    1.277914
C      4.861376    3.296000    0.954922
N      6.049728    3.218475    1.658722
C      5.974622    2.220912    2.509847
S      4.505958    1.341905    2.519975
H      2.630554    4.981948   -0.701826
H      1.944783    5.232023    0.941449
H      0.118853    5.948460   -0.911534
H     -1.248914    3.745510   -1.155426
H     -6.940863   -3.530286    0.016616
H     -3.725053   -6.906854    1.280098
H     -1.552707   -5.731201    0.972821
H     -4.078566   -0.935091   -3.086373
H     -2.986631    0.818410   -4.639830
H     -0.884235    1.949966   -3.328376
H      4.762731    4.064023    0.198200
H      6.791452    1.963884    3.171532
