34

N      2.681560    0.273258    0.514527
C      3.311572   -0.931346    0.445372
O      4.438752   -1.072453    0.908971
C      2.576349   -2.050179   -0.277999
C      2.600431   -1.866496   -1.798717
C      1.521083   -0.917694   -2.313830
C      0.150893   -1.261750   -1.742068
N      0.217520   -1.207197   -0.250757
S     -1.321129   -1.295763    0.525368
O     -2.029008   -2.418981   -0.049979
O     -1.101378   -1.186564    1.950926
C     -2.110392    0.206925    0.002445
C     -1.631409    1.428323    0.488554
C     -2.246586    2.615556    0.088316
C     -3.335355    2.570983   -0.784321
Br    -4.166004    4.180642   -1.325622
C     -3.820487    1.350478   -1.258073
C     -3.209312    0.159613   -0.860860
C      1.163481   -2.254680    0.272112
H      3.122908    0.981489    1.086776
H      1.674780    0.316553    0.394090
H      3.148208   -2.958863   -0.041966
H      3.584201   -1.513377   -2.130191
H      2.445104   -2.847324   -2.266897
H      1.781267    0.115539   -2.056821
H      1.485365   -0.967488   -3.408240
H     -0.162428   -2.258248   -2.074057
H     -0.568211   -0.530304   -2.120815
H     -0.792657    1.458461    1.180417
H     -1.877447    3.566377    0.465234
H     -4.674749    1.317428   -1.930213
H     -3.594949   -0.790738   -1.224072
H      0.794822   -3.246466   -0.018218
H      1.192750   -2.209446    1.366710
