41

C     -7.065794   -1.497899    2.368246
C     -6.625318   -0.309599    2.955181
C     -5.305507    0.110428    2.779615
C     -4.430249   -0.661034    2.016479
C     -4.869998   -1.847189    1.430414
C     -6.187452   -2.268725    1.604364
O     -4.044816   -2.638217    0.671237
C     -2.758870   -2.182693    0.527817
C     -1.883839   -2.950136   -0.235047
C     -0.562679   -2.526702   -0.409992
C     -0.098445   -1.333965    0.174193
C      1.294168   -0.892479   -0.012261
C      2.116071   -0.633681    1.095493
C      3.445762   -0.212899    0.946435
C      3.976075   -0.041687   -0.346289
C      3.150658   -0.300521   -1.442495
C      1.820831   -0.723419   -1.306839
N      3.894473   -0.057639   -2.574787
C      5.157513    0.339452   -2.241213
N      6.117380    0.646504   -3.133452
C      7.280285    1.011970   -2.546821
C      7.512618    1.080002   -1.178839
C      6.480312    0.749969   -0.299486
C      5.248687    0.362491   -0.855203
C     -0.999669   -0.575525    0.940647
C     -2.318561   -0.998918    1.113766
O     -3.143357   -0.206926    1.873003
H     -8.093944   -1.823443    2.505994
H     -7.310710    0.289548    3.549580
H     -4.961411    1.034484    3.235300
H     -6.528563   -3.193109    1.147151
H     -2.224303   -3.875787   -0.690226
H      0.112953   -3.143933   -0.999665
H      1.727150   -0.769879    2.103507
H      4.057595   -0.023950    1.823596
H      1.206541   -0.904070   -2.184803
H      3.574009   -0.152910   -3.525576
H      8.074335    1.266002   -3.245603
H      8.482730    1.385456   -0.802008
H      6.624902    0.791534    0.774535
H     -0.679673    0.357701    1.398515
