30

N     -1.927619   -2.260087   -0.612836
C     -1.603590   -0.953053   -0.411077
C     -0.427801   -0.395516    0.072843
C      0.725294   -1.180152    0.497761
C      1.982387   -1.027287   -0.104236
O      2.136492   -0.147817   -1.141970
C      3.079093   -1.771542    0.334706
C      2.926178   -2.678309    1.384315
C      1.682581   -2.840036    1.992975
C      0.587390   -2.093611    1.553169
C     -0.583971    1.019778    0.043392
C      0.374805    2.002887    0.445949
N      1.132168    2.819916    0.775493
C     -1.850316    1.296092   -0.432838
C     -2.584121    2.496795   -0.680878
C     -3.847714    2.424385   -1.139283
C     -4.493519    1.148690   -1.387817
C     -3.805474    0.017252   -1.163851
N     -2.487118    0.083578   -0.695945
H     -2.630395   -2.502539   -1.305928
H     -1.161037   -2.932554   -0.622218
H      3.082234   -0.059958   -1.344148
H      4.054489   -1.660947   -0.129154
H      3.778345   -3.258407    1.729918
H      1.564582   -3.542896    2.813938
H     -0.376324   -2.222110    2.042466
H     -2.118524    3.461254   -0.498022
H     -4.418863    3.327611   -1.332175
H     -5.517399    1.136989   -1.744387
H     -4.233810   -0.962625   -1.320960
