43

C     -1.211552    2.046498    2.735812
C     -1.205340    2.076270    1.203220
C     -2.495098    2.701463    0.659721
C      0.027350    2.813031    0.673528
C      0.395026    4.137821    0.864835
C      1.578447    4.586992    0.275953
C      2.373878    3.718948   -0.489076
C      1.999792    2.385190   -0.679357
C      0.825239    1.937522   -0.095866
C      0.201444    0.631392   -0.123701
C      0.604813   -0.542900   -0.743525
C     -0.186234   -1.700914   -0.618666
C      0.219437   -2.960355   -1.267528
C      0.505940   -2.994409   -2.660865
C      0.895642   -4.173617   -3.309374
C      0.991099   -5.310893   -2.537107
C      0.715290   -5.298528   -1.181540
C      0.329834   -4.148170   -0.519898
C      0.913100   -6.658335   -0.681598
O      0.755092   -7.017349    0.467216
N      1.295902   -7.408405   -1.750992
C      1.364374   -6.678128   -2.897501
O      1.669568   -7.055899   -4.010058
C     -1.377765   -1.633877    0.141661
C     -1.786761   -0.451713    0.767096
C     -0.990712    0.673768    0.627948
H     -2.053903    1.459784    3.120086
H     -1.294047    3.056254    3.154181
H     -0.292568    1.600541    3.135687
H     -2.501302    2.727719   -0.436901
H     -3.377970    2.135355    0.978338
H     -2.618364    3.731968    1.012298
H     -0.215808    4.812520    1.455608
H      1.889435    5.620431    0.410773
H      3.292373    4.089557   -0.938274
H      2.623098    1.724237   -1.271701
H      1.530821   -0.567319   -1.310273
H      0.410735   -2.082614   -3.251205
H      1.110162   -4.194109   -4.372855
H      0.132025   -4.171955    0.548185
H      1.500182   -8.393376   -1.700495
H     -2.007485   -2.516818    0.241412
H     -2.706138   -0.424491    1.343076
