40

C     -1.755532   -0.566797    1.884987
C     -1.378264    0.285827    3.121518
C     -0.184162    0.904127    2.929285
C      0.271697    0.528397    1.648450
S      1.641565    0.908225    0.777601
C      1.151617   -0.082365   -0.597895
C     -0.087856   -0.653039   -0.257986
C     -0.587622   -0.314305    1.001761
C     -0.724120   -1.517223   -1.210952
C     -1.923332   -2.147459   -1.036241
S     -2.285989   -3.074238   -2.436440
C     -0.823313   -2.591390   -3.213731
C     -0.057980   -1.740282   -2.439233
C      1.177699   -1.198429   -2.831521
C      1.784698   -1.497942   -4.140721
C      2.965073   -0.970745   -4.496473
C      3.671217   -0.091571   -3.596543
C      4.858577    0.462996   -3.906497
Si     5.480710    1.535691   -2.525235
C      3.931428    1.090409   -1.571450
C      3.118793    0.256376   -2.256336
C      1.797605   -0.334210   -1.859118
C     -2.176478    0.403620    4.298269
N     -3.336491   -0.209999    4.459366
C     -3.886126    0.084277    5.690404
C     -3.145241    0.929161    6.481599
S     -1.712529    1.372644    5.662163
H     -2.687761   -0.207123    1.438768
H     -1.838774   -1.623632    2.156463
H      0.350984    1.563054    3.596735
H     -2.612077   -2.139386   -0.205547
H     -0.634758   -2.979840   -4.203487
H      1.276505   -2.154338   -4.835113
H      3.402573   -1.198302   -5.463153
H      5.419443    0.336859   -4.818882
H      5.526606    2.971666   -2.892394
H      6.709385    0.998161   -1.892491
H      3.817921    1.517475   -0.594253
H     -4.840527   -0.350153    5.961955
H     -3.371219    1.295658    7.472306
