33

C      1.304602   -1.200490   -0.703027
C      1.321586   -0.769496    0.732447
C      2.074475   -0.966181    1.900363
C      1.471650   -0.208245    2.907556
N      0.372075    0.436281    2.357815
C      0.304435    0.084606    1.058045
C     -0.507443    0.337371   -0.070601
C      0.045948   -0.406903   -1.152750
C     -0.524180   -0.384670   -2.448326
C     -0.008026   -1.101468   -3.530930
N     -0.530940   -1.100271   -4.781510
C     -1.632690   -0.348337   -4.989967
C     -2.245427    0.408539   -4.009215
C     -1.690005    0.395460   -2.719126
C     -2.268119    1.159546   -1.632038
N     -3.356135    1.949695   -1.683754
S     -3.565449    2.575780   -0.158848
N     -2.290451    1.881337    0.651160
C     -1.646484    1.125239   -0.252018
C      1.865018   -0.074695    4.281630
N      2.916065   -0.703243    4.765732
C      3.067563   -0.401409    6.104437
C      2.127897    0.457083    6.630653
S      1.012167    0.905798    5.410259
H      2.192769   -0.858913   -1.240321
H      1.142372   -2.276614   -0.802242
H      2.957307   -1.580086    2.029751
H     -0.260092    1.056434    2.848916
H      0.876425   -1.725433   -3.429479
H     -2.023721   -0.371667   -6.003597
H     -3.130312    0.992834   -4.240086
H      3.890504   -0.840429    6.655182
H      2.046624    0.829793    7.641243
