41

C      4.772763   -2.637262    6.150887
C      3.717680   -1.558542    5.991624
O      2.464859   -2.142666    5.612905
C      2.280499   -2.328228    4.278014
O      3.090711   -2.048620    3.405622
O      1.027389   -2.889704    4.099810
C      0.721564   -3.123086    2.756203
C      0.996743   -4.378887    2.213631
C      0.666093   -4.656889    0.885021
C      0.049029   -3.632606    0.166646
O     -0.344640   -3.715760   -1.129812
C     -0.904742   -2.519423   -1.463998
C     -1.397124   -2.419835   -2.856427
C     -0.880345   -1.649575   -0.382033
C     -1.380099   -0.286278   -0.333655
O     -1.328625    0.412743    0.671870
O     -1.904448    0.137735   -1.520689
C     -2.425481    1.475265   -1.520877
C     -1.309597    2.505118   -1.695011
O     -1.821998    3.834736   -1.769884
C     -2.062332    4.403434   -0.488210
C     -0.255058   -2.378651    0.683139
C      0.082505   -2.112604    2.025064
H      4.443235   -3.394002    6.870402
H      4.951694   -3.155345    5.203432
H      5.716958   -2.207952    6.497727
H      4.033748   -0.790508    5.276280
H      3.559149   -1.055892    6.951411
H      1.472938   -5.144275    2.820620
H      0.873328   -5.617411    0.429120
H     -0.876563   -1.619864   -3.391623
H     -2.471167   -2.211053   -2.870225
H     -1.230537   -3.352750   -3.404588
H     -3.125742    1.552519   -2.360441
H     -3.024177    1.658584   -0.621171
H     -0.547232    2.425013   -0.911413
H     -0.790694    2.301791   -2.638872
H     -2.430159    5.423187   -0.631057
H     -1.135229    4.447584    0.091385
H     -2.821501    3.836343    0.056917
H     -0.139954   -1.152173    2.480040
