34

O     -1.188295   -2.038516   -0.223260
C     -0.275705   -1.360950   -0.679871
C      0.165039   -1.524998   -2.077322
C     -0.435364   -2.480346   -2.906012
C     -0.005229   -2.620768   -4.227118
C      1.018606   -1.804446   -4.702977
O      1.468418   -1.908529   -5.985713
C      1.618587   -0.852506   -3.883671
C      1.188531   -0.713752   -2.564984
O      1.810693    0.239625   -1.799147
C      1.402460    0.374027   -0.494118
C      0.444448   -0.336486    0.119661
C      0.111093   -0.072757    1.530117
C     -1.045565    0.681817    1.786532
C     -1.406153    1.002899    3.090614
C     -0.614244    0.575391    4.153127
C      0.543522   -0.185726    3.930918
C      0.922670   -0.527358    2.607786
C      2.090204   -1.311604    2.442266
C      2.855556   -1.728431    3.533774
C      2.473908   -1.376516    4.821219
C      1.324933   -0.612247    5.017788
H     -1.234355   -3.112347   -2.523366
H     -0.476467   -3.364663   -4.862499
H      0.966237   -2.604780   -6.441035
H      2.414981   -0.224517   -4.272306
H      1.977933    1.153424   -0.008124
H     -1.676244    1.019053    0.966282
H     -2.305313    1.583178    3.280051
H     -0.914610    0.836642    5.165889
H      2.415425   -1.618995    1.450994
H      3.745386   -2.331751    3.374127
H      3.064508   -1.700590    5.673900
H      1.039122   -0.353063    6.035209
