35

C      0.968021   -4.809896   -1.896440
C      2.411890   -4.732705   -2.465110
C      3.046834   -3.583102   -2.123266
C      2.113110   -2.881513   -1.356799
N      2.111373   -1.690757   -0.724278
C      0.868145   -1.538819   -0.118495
C      0.109428   -2.693607   -0.410211
N     -1.156960   -2.893406    0.018911
C     -1.673060   -1.891830    0.768476
C     -1.039245   -0.704226    1.134527
C     -1.708572    0.284762    1.946536
C     -1.134715    1.511402    2.376307
C     -1.857953    2.471732    3.192248
N     -3.111179    2.821148    2.974974
C     -3.532602    3.706972    3.946432
C     -2.606784    4.003107    4.921073
S     -1.158727    3.141060    4.618915
C      0.162166    1.662072    1.876525
C      1.014345    2.729873    2.002235
O      2.183994    2.469489    1.348417
C      2.073832    1.231843    0.780316
C      0.844569    0.693650    1.062773
C      0.296304   -0.529544    0.659914
C      0.919020   -3.516395   -1.189201
H      0.867005   -5.660970   -1.217843
H      0.237890   -4.870166   -2.707797
H      2.840669   -5.522050   -3.065230
H      4.048816   -3.280329   -2.385978
H      2.873746   -1.031153   -0.693302
H     -2.693900   -2.087462    1.093722
H     -2.735568    0.080442    2.261467
H     -4.538548    4.106204    3.898318
H     -2.712379    4.656799    5.774667
H      0.967259    3.697952    2.480872
H      2.942999    0.922734    0.221723
