32

O      0.668710   -1.057704   -2.429603
C     -0.336528   -0.457998   -2.065448
C     -1.041794    0.453422   -2.985277
C     -0.554125    0.679409   -4.278259
C     -1.237542    1.543276   -5.136665
C     -2.400058    2.169427   -4.692433
O     -3.098015    3.019546   -5.498008
C     -2.889776    1.947660   -3.408639
C     -2.205626    1.085580   -2.552855
O     -2.729677    0.898383   -1.299702
C     -2.049543    0.067031   -0.443076
C     -0.916694   -0.604293   -0.703106
C     -0.303591   -1.475095    0.319218
C     -0.162302   -2.844079    0.035583
C      0.399640   -3.712358    0.970509
C      0.826929   -3.222275    2.199895
C      0.701039   -1.862655    2.496085
C      0.144180   -0.979100    1.562729
O     -0.006076    0.369379    1.773583
C      0.598247    0.923197    2.934985
H      0.354886    0.184647   -4.614257
H     -0.851229    1.712667   -6.137171
H     -2.645472    3.084024   -6.355404
H     -3.797732    2.444014   -3.078891
H     -2.564957    0.026417    0.509262
H     -0.483227   -3.241454   -0.925632
H      0.506856   -4.768021    0.734964
H      1.265437   -3.898201    2.929890
H      1.048559   -1.525364    3.466813
H      0.111381    0.554759    3.843667
H      1.675812    0.729098    2.954520
H      0.456767    2.007725    2.899618
