35

C     -2.238148    2.510129   -3.531193
C     -2.574662    3.061022   -2.158232
O     -1.659481    2.544326   -1.181165
C     -1.981861    1.327095   -0.636539
O     -2.991077    0.699225   -0.944806
C     -0.932359    0.886637    0.425859
N     -1.167920   -0.489153    0.943651
C     -1.409772   -1.572593    0.164295
N     -2.182849   -2.533303    0.620236
C     -2.305662   -3.545328   -0.309340
C     -1.600260   -3.364303   -1.475343
S     -0.755529   -1.880443   -1.402335
S      0.765735    1.036833   -0.284869
C      1.719831    0.919196    1.208594
C      3.025235    0.419655    1.132583
C      3.838423    0.390267    2.266530
C      3.357720    0.877027    3.479487
C      2.061264    1.386837    3.561472
C      1.235818    1.395568    2.432131
N     -0.050872    1.932915    2.565353
C     -1.069614    1.848845    1.647611
O     -2.120210    2.443426    1.912855
H     -2.346368    1.421201   -3.556001
H     -2.891509    2.943359   -4.293700
H     -1.197509    2.732106   -3.789624
H     -2.458086    4.149697   -2.160274
H     -3.614059    2.850011   -1.882335
H     -1.833176   -0.477206    1.714185
H     -2.927557   -4.401734   -0.080451
H     -1.540948   -4.013395   -2.336286
H      3.421567    0.054413    0.187417
H      4.849565   -0.004019    2.199039
H      3.993419    0.860971    4.361609
H      1.704315    1.762831    4.516828
H     -0.288625    2.434848    3.412119
