44

C      5.006014   -2.379799   -0.016851
C      5.209125   -1.988939   -1.450826
C      4.106016   -1.376825   -1.912814
C      3.824553   -0.820243   -3.238580
C      4.732737   -0.846298   -4.299817
C      4.374852   -0.291535   -5.524176
C      3.117666    0.272305   -5.647088
N      2.211304    0.317914   -4.647162
C      2.563244   -0.225832   -3.448632
C      1.536140   -0.157206   -2.366408
C      0.280550    0.439780   -2.591048
C     -0.695544    0.511020   -1.580377
C     -1.944454    1.095272   -1.774597
N     -2.906144    1.181295   -0.826250
C     -2.643244    0.665428    0.399965
C     -1.419965    0.062424    0.682735
C     -0.430364   -0.020184   -0.310836
C      0.817123   -0.619172   -0.070207
C      1.794343   -0.692210   -1.076643
C      3.109316   -1.314562   -0.849697
C      3.613720   -1.890574    0.254832
C     -3.734323    0.791350    1.390801
S     -5.225133    1.564646    0.924434
C     -5.944956    1.357116    2.458401
C     -5.096259    0.719881    3.320280
N     -5.441015    0.437930    4.607624
C     -4.427046   -0.196056    5.251869
C     -3.193007   -0.519990    4.680454
N     -2.825246   -0.249396    3.398534
C     -3.822770    0.390778    2.714881
H      5.074901   -3.464090    0.110164
H      5.732239   -1.884148    0.633908
H      6.117242   -2.185098   -1.998903
H      5.715630   -1.292695   -4.186612
H      5.061641   -0.299158   -6.363228
H      2.794169    0.717477   -6.583902
H      0.059333    0.857369   -3.572995
H     -2.220531    1.527859   -2.733052
H     -1.216144   -0.348035    1.664803
H      1.022089   -1.030937    0.914895
H      3.122407   -2.002304    1.208533
H     -6.947225    1.708727    2.654596
H     -4.633579   -0.452194    6.287237
H     -2.437956   -1.029357    5.273016
