38

C     -0.896991   -6.952739   -2.235576
S     -0.562487   -6.468279   -0.531858
C     -1.682312   -5.159448   -0.422290
N     -2.947853   -5.367896   -0.232620
C     -3.556986   -4.022509   -0.215052
C     -2.400377   -3.051930   -0.066922
N     -1.264215   -3.835893   -0.469015
C     -0.007891   -3.331010   -0.788770
O      0.797980   -3.878096   -1.535646
C      0.327831   -1.968680   -0.309787
C      0.286095   -1.660746    1.055875
C      0.634762   -0.379472    1.489260
C      1.025036    0.585411    0.552971
S      1.522421    2.206545    1.111616
O      2.424138    2.745866    0.116198
O      1.923660    2.077274    2.496450
N      0.072095    3.091997    1.055490
C     -0.477874    3.398872   -0.275068
C     -0.956693    2.762404    2.054362
C      1.110819    0.267403   -0.807335
C      0.761336   -1.013827   -1.238054
H     -0.257552   -7.797630   -2.504766
H     -1.940927   -7.255849   -2.352691
H     -0.685388   -6.124732   -2.917867
H     -4.093433   -3.860290   -1.156821
H     -4.269879   -3.925870    0.609637
H     -2.279472   -2.759109    0.981335
H     -2.512850   -2.154301   -0.681820
H      0.017218   -2.419921    1.787322
H      0.624289   -0.147621    2.552903
H      0.304795    3.728987   -0.963354
H     -0.992176    2.530623   -0.696709
H     -1.196178    4.221353   -0.195252
H     -1.686424    3.576608    2.114226
H     -0.521050    2.654883    3.051381
H     -1.485458    1.843263    1.786597
H      1.467167    0.999789   -1.528835
H      0.846636   -1.274623   -2.291584
