39

C      0.689006    3.188498   -2.936307
C      0.623169    4.645695   -3.303080
C     -0.001650    5.332545   -2.334931
C     -0.391524    4.431743   -1.280379
C     -0.007989    3.186795   -1.604851
C     -0.200522    1.973751   -0.812077
C      0.787464    1.683663    0.120170
C      0.699803    0.540939    0.930004
C      1.761023    0.311169    1.862185
N      2.851291    1.078818    2.053991
S      3.749176    0.361791    3.243020
N      2.801934   -0.954742    3.569094
C      1.734543   -0.880714    2.750869
C      0.652762   -1.802647    2.679784
C      0.635767   -2.932859    3.526885
C     -0.416855   -3.821231    3.449983
C     -1.400682   -3.540686    2.533284
N     -1.391850   -2.457569    1.716128
C     -0.391847   -1.549790    1.741533
C     -0.390240   -0.384176    0.857267
C     -1.424906   -0.052135   -0.129003
C     -2.591290   -0.835284   -0.357601
C     -3.579228   -0.515901   -1.295541
C     -3.450543    0.620368   -2.063292
C     -2.332767    1.425983   -1.887137
C     -1.316136    1.122359   -0.945889
H      1.727983    2.855261   -2.851001
H      0.161279    2.577354   -3.674824
H      1.024703    5.064789   -4.213203
H     -0.192097    6.395105   -2.325508
H     -0.909381    4.733410   -0.382392
H      1.638958    2.358310    0.215062
H      1.440258   -3.110915    4.237097
H     -0.467597   -4.699713    4.081661
H     -2.260375   -4.195099    2.416200
H     -2.776908   -1.744897    0.202703
H     -4.443650   -1.164060   -1.412118
H     -4.209624    0.884656   -2.793399
H     -2.265801    2.318567   -2.507145
