40

O     -2.291500    0.433088   -1.535005
C     -1.165226    0.455347   -1.057148
C     -0.315629    1.655827   -1.178410
C     -0.710575    2.714609   -2.007580
C      0.119802    3.825289   -2.153289
O     -0.135809    4.924188   -2.925841
C     -1.361993    4.930860   -3.648184
C      1.341044    3.862297   -1.471771
C      1.731214    2.806906   -0.643910
C      0.891893    1.708777   -0.484623
O      1.329494    0.713683    0.344468
C      0.273877   -0.121098    0.884043
C      0.945582   -1.100047    1.894507
C      2.049646   -1.956603    1.240860
C      1.623423   -0.300117    3.032740
C     -0.115179   -1.991041    2.533449
O     -1.077438   -1.247233    3.147738
C     -2.118990   -2.016210    3.753325
O     -0.109860   -3.214807    2.491898
C     -0.567585   -0.656975   -0.256325
C     -0.847753   -1.927761   -0.581197
O     -1.590687   -2.302700   -1.668163
H     -1.658913    2.636566   -2.530574
H     -1.413790    5.868997   -4.209100
H     -1.398851    4.108534   -4.370315
H     -2.220303    4.901103   -2.968862
H      1.995260    4.723595   -1.589237
H      2.683084    2.850470   -0.121756
H     -0.380474    0.539873    1.475350
H      2.510057   -2.627477    1.976443
H      1.670690   -2.590250    0.435407
H      2.848414   -1.334188    0.822776
H      2.471662    0.287818    2.665119
H      0.923006    0.394246    3.510760
H      1.996635   -0.970698    3.816005
H     -2.830867   -1.322204    4.208459
H     -2.645679   -2.607992    2.998184
H     -1.711579   -2.660502    4.538565
H     -0.490077   -2.796055   -0.043820
H     -1.798149   -3.251288   -1.600654
