39

C     -2.436959    3.446767   -3.618803
C     -1.467106    2.720029   -4.502079
C     -0.928581    1.700307   -3.821194
C      0.027989    0.727721   -4.206159
C      0.724488    0.505185   -5.409527
C      1.529741   -0.594932   -5.198717
N      1.335191   -1.034224   -3.909527
C      0.414233   -0.232597   -3.282765
C     -0.090951   -0.338582   -1.901796
C      0.343385   -1.335996   -1.020449
C     -0.185794   -1.363538    0.267457
Si     0.185990   -2.561139    1.675380
C     -1.042138   -1.609789    2.734897
C     -1.606618   -0.573235    2.082953
C     -1.142174   -0.412418    0.692906
C     -1.579823    0.581988   -0.175125
C     -1.061540    0.630413   -1.477204
C     -1.479196    1.661428   -2.461585
C     -2.357179    2.671951   -2.332302
C     -1.313801   -1.981265    4.075030
C     -2.178114   -1.410862    5.007900
C     -2.089480   -2.152076    6.209978
C     -1.177427   -3.144222    5.967389
O     -0.708341   -3.054013    4.701103
H     -3.448504    3.414839   -4.034122
H     -2.131746    4.486720   -3.470231
H     -1.247199    2.987211   -5.523514
H      0.654931    1.073418   -6.327201
H      2.224423   -1.104145   -5.852857
H      1.802415   -1.827158   -3.493393
H      1.075642   -2.076228   -1.323489
H     -0.249759   -3.940238    1.330147
H      1.598745   -2.435717    2.121895
H     -2.338001    0.107779    2.496372
H     -2.313538    1.307147    0.159739
H     -2.933228    2.917745   -1.454523
H     -2.806439   -0.548279    4.834614
H     -2.623709   -1.982128    7.133715
H     -0.772802   -3.952707    6.559911
