48

C     -1.514852    6.694228   -1.874883
C     -1.510143    5.325530   -1.574367
C     -0.224441    5.070244   -1.067952
C      0.531256    4.058771   -0.582954
S      2.093585    4.718157   -0.176602
C      1.669172    6.325965   -0.677914
C      0.397763    6.292445   -1.116492
O     -0.322447    7.340893   -1.598648
C      0.240698    2.641251   -0.374977
C     -0.028263    2.222591    0.934928
C     -0.343433    0.895995    1.200437
C     -0.401652   -0.043468    0.162214
C     -0.747676   -1.411170    0.516036
S      0.381074   -2.544291    1.165031
C     -0.801290   -3.829833    1.280463
C     -0.442142   -5.144688    1.811826
C      0.723999   -5.806660    1.400174
C      1.046504   -7.067870    1.908828
C      0.206645   -7.683214    2.834149
C     -0.956037   -7.039649    3.251354
C     -1.279004   -5.779047    2.742025
C     -1.979074   -3.326412    0.835017
C     -3.315895   -3.710303    0.620613
C     -3.944513   -2.570643    0.103078
O     -3.110691   -1.476900   -0.035882
C     -1.946566   -2.015810    0.422267
C     -0.130808    0.351123   -1.178877
C     -0.168432   -0.558587   -2.265651
C      0.104362   -0.163381   -3.575012
C      0.427502    1.156212   -3.838238
C      0.473989    2.076719   -2.791614
C      0.196695    1.709712   -1.450487
H     -2.278962    7.342645   -2.283401
H     -2.331912    4.637320   -1.712454
H      2.343585    7.167863   -0.625006
H     -0.000503    2.934644    1.757614
H     -0.552854    0.596744    2.225677
H      1.390646   -5.352760    0.670179
H      1.953516   -7.568714    1.580009
H      0.458940   -8.663351    3.230534
H     -1.611400   -7.516563    3.975447
H     -2.186010   -5.290335    3.090784
H     -3.782805   -4.668027    0.800067
H     -4.963389   -2.385484   -0.211805
H     -0.415228   -1.605818   -2.102225
H      0.064996   -0.890040   -4.381923
H      0.646736    1.475040   -4.853720
H      0.740604    3.101821   -3.041519
