46

Si    -3.723940    0.495358   -1.503675
C     -2.358283    0.420969   -0.236608
C     -1.186510    0.055616   -0.797004
C      0.087861   -0.109908   -0.089789
C      1.158416   -0.486309   -0.827377
C      1.095808   -0.709828   -2.270396
C     -0.043076   -0.582985   -2.991302
C      0.035340   -0.800074   -4.400519
S      0.274754   -2.386303   -5.065384
C      0.226718   -1.829711   -6.695784
C      0.027416   -0.480530   -6.731656
S     -0.117528    0.658747   -8.118220
C     -0.322059    1.895261   -6.882930
C     -0.279777    1.456606   -5.554308
C     -0.075393    0.055278   -5.449942
C     -1.254065   -0.187130   -2.262359
C     -2.480567   -0.016618   -2.798750
C      0.277186    0.054330    1.318387
S      1.079058    1.465937    1.935693
C      0.917238    0.991694    3.598861
C      0.259004   -0.208460    3.630171
Si    -0.321517   -1.398297    4.975976
C     -1.022231   -2.527501    3.599464
C     -0.801219   -2.003555    2.374545
C     -0.108830   -0.747105    2.367231
C      1.442844    1.836622    4.678902
N      2.060453    2.972233    4.347253
C      2.505629    3.676470    5.382071
N      2.384800    3.344233    6.664861
C      1.751799    2.191787    6.866874
N      1.257855    1.392085    5.925723
H     -4.763573   -0.537602   -1.278773
H     -4.226068    1.873628   -1.719736
H     -2.543256    0.649571    0.801327
H      2.130580   -0.643735   -0.365543
H      2.036119   -0.981138   -2.745043
H      0.340922   -2.496480   -7.539088
H     -0.465464    2.911618   -7.223853
H     -0.392283    2.130545   -4.713255
H     -2.770105   -0.142925   -3.829974
H     -1.426081   -0.879406    5.821780
H      0.773387   -2.092403    5.699704
H     -1.518724   -3.453304    3.840895
H     -1.118606   -2.487378    1.457248
H      3.014604    4.608327    5.160065
H      1.627096    1.875002    7.896930
