37

C      0.191854   -1.133388   -4.915865
C     -0.929195   -1.673446   -4.419093
C     -1.928366   -0.922934   -3.584739
N     -1.849341   -1.396518   -2.216447
C     -2.579266   -2.506243   -1.834594
N     -2.595151   -3.032501   -0.653268
C     -1.799711   -2.400999    0.246093
S     -1.673994   -2.963035    1.850881
C     -0.573002   -1.722826    2.262072
C     -0.295425   -0.884709    1.197379
C      0.620625    0.234359    1.370725
C      0.169313    1.545465    1.216503
C      1.046547    2.615949    1.401281
C      2.388955    2.395887    1.745770
C      3.303672    3.575569    1.930693
C      2.852508    1.074403    1.902208
C      4.283488    0.782704    2.262239
C      1.959738    0.005416    1.712496
C     -1.018854   -1.284756    0.022695
C     -1.033386   -0.709740   -1.314540
O     -0.398067    0.297376   -1.614412
H      0.878267   -1.723048   -5.516094
H      0.461865   -0.098726   -4.719871
H     -1.148141   -2.716262   -4.637506
H     -2.933601   -1.109968   -3.979669
H     -1.753746    0.157914   -3.626439
H     -3.187791   -2.951318   -2.638716
H     -0.186634   -1.666015    3.271256
H     -0.863929    1.746644    0.945520
H      0.671414    3.628310    1.267948
H      4.121430    3.539811    1.204032
H      3.715203    3.582988    2.944908
H      2.773347    4.522658    1.784614
H      4.956487    1.174241    1.492939
H      4.531654    1.232066    3.228942
H      4.466882   -0.294001    2.343354
H      2.315421   -1.017166    1.824362
