41

C     -0.694733    3.466694    0.761396
N     -1.069809    2.328942   -0.077096
C     -2.341430    2.340488   -0.709982
C     -3.137607    3.499728   -0.798837
C     -4.410549    3.471678   -1.370925
C     -4.916484    2.281075   -1.868178
C     -4.133861    1.126802   -1.829818
C     -2.829496    1.136898   -1.296353
N     -1.995114   -0.012388   -1.302349
C     -2.316303   -1.096483   -2.231399
C     -0.723540   -0.021750   -0.669351
C      0.064460   -1.188338   -0.576774
C      1.346426   -1.183955   -0.005002
C      2.135352   -2.423136    0.077674
C      1.745866   -3.418778    0.994367
C      2.459373   -4.613412    1.112745
C      3.576985   -4.838058    0.315637
C      3.980913   -3.867813   -0.600841
C      3.268678   -2.663509   -0.725916
C      3.724526   -1.705259   -1.694686
N      4.126366   -0.951471   -2.480958
C      1.844132    0.021518    0.488981
C      1.066822    1.182368    0.446837
C     -0.235393    1.180909   -0.085454
H     -0.095186    3.175361    1.630590
H     -0.131123    4.200187    0.175272
H     -1.560560    3.964749    1.211369
H     -2.780527    4.457395   -0.435174
H     -5.005155    4.379944   -1.417577
H     -5.915303    2.246970   -2.294436
H     -4.574232    0.213620   -2.216699
H     -2.890030   -0.756745   -3.100859
H     -2.887686   -1.876605   -1.717394
H     -1.424085   -1.550444   -2.677343
H     -0.319965   -2.135333   -0.945107
H      0.876361   -3.259540    1.631544
H      2.140718   -5.366377    1.829936
H      4.133673   -5.767794    0.406826
H      4.855955   -4.055505   -1.221480
H      2.839564    0.071528    0.925516
H      1.516789    2.091076    0.833012
