44

C     -3.785914    0.502438   -2.895249
C     -2.807405    0.451444   -1.715968
C     -2.764154    1.753919   -0.941821
C     -2.405559    2.969437   -1.547626
C     -2.352088    4.147487   -0.797830
C     -2.649258    4.127068    0.564497
C     -3.000020    2.927362    1.179178
C     -3.054495    1.757799    0.427001
F     -3.397078    0.614501    1.039401
N     -1.453335    0.048889   -2.087576
C     -0.521213   -0.542521   -1.281884
C      0.600515   -0.660002   -2.080130
C      1.926354   -1.164018   -1.733700
O      2.896286   -1.068398   -2.480732
N      2.022398   -1.762131   -0.486890
C      3.265658   -2.337601   -0.031845
C      3.281321   -2.625752    1.467903
C      3.204829   -1.369110    2.340950
N      1.872733   -0.806758    2.437297
C      0.816460   -1.347568    3.117607
C     -0.227471   -0.479023    2.901416
N      0.170239    0.567436    2.111400
C      1.445981    0.360195    1.871515
N      0.293635   -0.172515   -3.330588
N     -0.964286    0.249705   -3.324400
H     -3.502782    1.252747   -3.641713
H     -3.829446   -0.467227   -3.403894
H     -4.796425    0.746821   -2.549020
H     -3.163144   -0.353207   -1.058382
H     -2.146083    3.006556   -2.604917
H     -2.065428    5.080979   -1.276959
H     -2.596676    5.042738    1.147675
H     -3.220565    2.892811    2.241178
H     -0.721927   -0.760762   -0.243510
H      1.162118   -1.987900   -0.003604
H      3.409332   -3.271372   -0.587274
H      4.090465   -1.667747   -0.300955
H      2.471011   -3.320123    1.721350
H      4.223096   -3.139538    1.696960
H      3.506729   -1.614140    3.366385
H      3.884284   -0.590388    1.976682
H      0.888762   -2.267951    3.680041
H     -1.242989   -0.550566    3.269983
H      2.089157    1.004654    1.284919
