39

O     -2.346757    1.675080   -0.453643
C     -1.830744    0.718612    0.098996
C     -0.838282   -0.170645   -0.535272
C      0.472494   -0.346982   -0.009177
C      0.967635    0.313710    1.150470
C      2.262948    0.125990    1.673141
N      2.706226    0.804796    2.815490
C      1.709473    1.326370    3.750903
C      3.996413    0.450846    3.403795
C      3.088541   -0.745181    0.951515
C      2.649604   -1.406283   -0.202582
C      1.355621   -1.220382   -0.694649
C      0.950219   -1.883606   -1.866711
C     -0.329268   -1.684531   -2.353701
C     -1.219487   -0.835039   -1.698853
C     -2.515771   -0.754403   -2.448220
C     -2.427426   -2.000678   -3.340310
C     -0.936161   -2.247714   -3.600129
O     -2.113615    0.245220    1.338214
C     -3.110995    0.998836    2.026677
H      0.304751    1.014497    1.648870
H      2.183200    1.756020    4.640852
H      1.129215    2.137666    3.298808
H      1.033322    0.533746    4.090405
H      4.233908    1.099459    4.254637
H      3.994055   -0.583552    3.764645
H      4.812261    0.589798    2.686157
H      4.109616   -0.939314    1.264782
H      3.345321   -2.067554   -0.715158
H      1.632840   -2.541048   -2.399182
H     -2.546929    0.159812   -3.049902
H     -3.389277   -0.803959   -1.792078
H     -3.001634   -1.894052   -4.265899
H     -2.845272   -2.860663   -2.798318
H     -0.587966   -1.688534   -4.474603
H     -0.723732   -3.312997   -3.726073
H     -4.060313    0.965224    1.482927
H     -3.259257    0.545556    3.010675
H     -2.780995    2.032852    2.168182
