39

C     -3.820651   -1.629186    0.668655
C     -2.873399   -1.473023    1.854865
C     -3.668001   -1.134706    3.114567
O     -2.200545   -2.708544    2.114343
C     -1.065080   -3.025572    1.425054
C     -0.517250   -4.267501    1.765218
C      0.631045   -4.745009    1.131671
C      1.251698   -3.972385    0.154697
C      0.725553   -2.719426   -0.174637
C      1.423443   -1.918472   -1.213436
O      1.796668   -2.485553   -2.230192
N      1.541335   -0.559357   -0.919354
C      2.376817    0.419454   -1.491583
S      3.493658    0.147402   -2.701059
N      2.076397    1.654840   -0.906534
C      2.828211    2.853021   -0.864289
C      2.139720    4.037873   -0.587641
C      2.831385    5.244987   -0.493985
C      4.204249    5.229609   -0.661142
N      4.910628    4.107336   -0.900820
C      4.210394    2.947059   -0.996770
C     -0.442600   -2.250232    0.447311
H     -4.526063   -2.450512    0.837597
H     -3.273533   -1.872722   -0.247244
H     -4.388795   -0.710364    0.493246
H     -2.163978   -0.654341    1.690511
H     -2.995385   -1.039845    3.974123
H     -4.218406   -0.196048    2.998229
H     -4.379023   -1.931983    3.358632
H     -1.001634   -4.877975    2.525021
H      1.034489   -5.719312    1.396197
H      2.141858   -4.344443   -0.349557
H      1.224575   -0.298873    0.002517
H      1.100204    1.765509   -0.662471
H      1.061564    4.044434   -0.456882
H      2.310870    6.175333   -0.296035
H      4.789614    6.142605   -0.600134
H      4.842729    2.079628   -1.148751
H     -0.866334   -1.306349    0.127467
