34

N     -3.136924    0.196077   -3.352433
C     -2.950977    1.122479   -2.677774
C     -2.730448    2.292544   -1.873379
C     -3.494094    3.438447   -2.151158
C     -3.330736    4.598802   -1.395727
C     -2.405291    4.622929   -0.357742
C     -1.642097    3.487771   -0.075299
C     -1.785988    2.304161   -0.825316
C     -0.956152    1.136797   -0.483350
C      0.033493    0.670414   -1.348264
C      0.811273   -0.436935   -1.000192
C      0.632983   -1.114723    0.230714
C     -0.365651   -0.632449    1.107074
C     -1.129590    0.467284    0.737280
N     -0.622236   -1.184920    2.298850
C      0.109314   -2.256704    2.669332
C      1.116950   -2.832248    1.905096
C      1.833490   -3.951883    2.367764
C      2.840559   -4.520011    1.593139
C      3.138736   -3.974960    0.352191
C      2.429567   -2.862191   -0.112230
C      1.397582   -2.255974    0.648761
H     -4.224700    3.429628   -2.958792
H     -3.926414    5.481652   -1.615678
H     -2.274709    5.525217    0.235388
H     -0.920643    3.530914    0.740168
H      0.212888    1.161582   -2.302934
H      1.563147   -0.762393   -1.713589
H     -1.895601    0.809044    1.432455
H     -0.153763   -2.656086    3.645894
H      1.607738   -4.388643    3.338535
H      3.388524   -5.385131    1.956955
H      3.922460   -4.412731   -0.261149
H      2.700109   -2.475573   -1.091022
