42

C     -1.590885    2.434222    5.243603
O     -1.201155    1.426620    4.310086
C     -1.330345    0.150116    4.782333
O     -1.740094   -0.122542    5.904616
C     -0.910913   -0.796669    3.757310
C     -0.434325   -0.518578    2.461183
C     -0.114596   -1.683007    1.706527
C     -0.358784   -2.797350    2.507456
C     -0.052878   -3.960169    1.862941
S      0.539300   -3.629733    0.282419
C      0.369897   -1.914135    0.457671
C      0.714590   -1.013326   -0.611831
C      1.769536   -1.125511   -1.493025
C      1.826174   -0.069279   -2.468993
C      0.798152    0.849437   -2.273560
S     -0.219191    0.370473   -0.966284
C      0.687263    1.986226   -3.088456
O     -0.360768    2.877269   -2.890320
C      0.054364    3.924748   -2.011786
C      1.584499    2.212744   -4.151473
C      1.638269    3.268831   -5.128125
C      2.695684    3.147326   -5.996265
S      3.634056    1.767926   -5.659506
C      2.614436    1.292047   -4.347047
C      2.724725    0.156156   -3.530578
O      3.772816   -0.735583   -3.723994
C      3.362990   -1.779672   -4.609341
S     -0.996165   -2.512062    4.161760
H     -1.450308    3.408696    4.767749
H     -2.648172    2.326864    5.505463
H     -0.961865    2.392601    6.138336
H     -0.326930    0.496412    2.096577
H     -0.147332   -4.965677    2.249774
H      2.492818   -1.932236   -1.457210
H     -0.806313    4.578661   -1.842651
H      0.377208    3.533111   -1.041282
H      0.852136    4.525805   -2.460691
H      0.923570    4.081687   -5.176154
H      2.962602    3.805584   -6.811718
H      3.048891   -1.384919   -5.581358
H      4.223711   -2.434921   -4.772943
H      2.560268   -2.380215   -4.168510
