47

C      3.122629   -4.764685    2.969032
C      4.144561   -4.194829    3.913559
C      4.046882   -2.859350    3.911875
C      4.806983   -1.875265    4.640409
C      4.503801   -0.576023    4.446973
C      3.436434   -0.150494    3.533362
C      2.686663   -1.028432    2.821401
C      1.629586   -0.507599    1.942074
C      0.281691   -0.650561    2.292881
N     -0.785983   -0.224892    1.569417
C     -0.450125    0.388542    0.404082
C      0.865296    0.563088   -0.008736
C      1.951819    0.124984    0.736598
O      0.907080    1.203596   -1.208918
C     -0.387600    1.441434   -1.567063
C     -0.796891    2.079119   -2.731740
C     -2.180137    2.237096   -2.934913
C     -2.609839    2.875438   -4.099575
C     -3.964846    3.061615   -4.357335
C     -4.933301    2.614305   -3.456568
C     -6.292914    2.818844   -3.748252
C     -7.288177    2.387715   -2.875861
C     -6.933732    1.745941   -1.699689
C     -5.584242    1.536781   -1.398718
C     -4.540018    1.960491   -2.260559
C     -3.137913    1.766797   -1.992035
C     -2.645714    1.123632   -0.822869
C     -1.263688    0.959288   -0.607610
C      2.985656   -2.443286    2.999575
C      2.438450   -3.533235    2.440342
H      2.415515   -5.410877    3.497375
H      3.602901   -5.324616    2.161218
H      4.841083   -4.783423    4.489944
H      5.594420   -2.187828    5.315370
H      5.049040    0.202230    4.972421
H      3.271257    0.921960    3.462333
H      0.011502   -1.142772    3.226401
H      2.969620    0.263002    0.395072
H     -0.061800    2.434568   -3.445327
H     -1.889923    3.240475   -4.829972
H     -4.255485    3.564265   -5.277634
H     -6.589446    3.320941   -4.667078
H     -8.334720    2.553503   -3.115917
H     -7.701986    1.404840   -1.010617
H     -5.364330    1.028934   -0.463802
H     -3.312829    0.738645   -0.059053
H      1.636274   -3.549357    1.718478
