34

C     -3.803181    3.605534    2.931527
C     -3.276849    3.685441    4.370607
C     -2.208503    2.878694    4.564491
C     -1.965080    2.240573    3.332011
S     -0.834036    1.130368    2.819382
C     -1.516826    1.115496    1.203748
C     -2.621454    1.988044    1.109877
C     -3.295236    2.100386   -0.127642
C     -2.872413    1.360211   -1.235688
C     -1.777912    0.497673   -1.137347
C     -1.318280   -0.266956   -2.220261
C     -0.220436   -1.122563   -2.070594
C      0.387385   -1.162573   -0.816541
N     -0.019124   -0.448690    0.258910
C     -1.088496    0.365092    0.081926
C      0.253966   -1.922399   -3.195236
C      0.584302   -1.475844   -4.425949
C      1.023300   -2.497874   -5.363744
C      1.037032   -3.753642   -4.881353
Si     0.467589   -3.805764   -3.090632
C     -2.848616    2.618145    2.357647
H     -3.732174    4.578118    2.437185
H     -4.832861    3.237949    2.913620
H     -3.719219    4.317248    5.126903
H     -1.644251    2.740075    5.474585
H     -4.149134    2.767250   -0.221806
H     -3.409498    1.466457   -2.175819
H     -1.824376   -0.202443   -3.181055
H      1.260990   -1.781934   -0.628207
H      0.546873   -0.435944   -4.728759
H      1.314686   -2.237041   -6.373981
H      1.327652   -4.648618   -5.408595
H      1.558787   -4.190933   -2.161653
H     -0.823299   -4.519846   -2.934808
