39

C     -1.626295   -2.252094   -0.866151
C     -0.644540   -3.241133   -0.302138
C      0.419775   -2.583560    0.173443
C      1.608479   -3.042069    0.798230
C      2.124424   -4.300615    1.152611
C      3.349807   -4.043586    1.739407
O      3.615885   -2.703783    1.766010
C      2.545131   -2.103190    1.188476
C      2.451685   -0.655004    1.028556
N      3.471116    0.118290    1.472990
C      3.375454    1.462836    1.320325
C      2.247896    2.031655    0.717248
C      1.819943    3.349874    0.402208
C      0.574923    3.260175   -0.207494
O      0.232478    1.933173   -0.273381
C      1.230625    1.193666    0.278896
C      1.276912   -0.183709    0.409673
C      0.240403   -1.133742   -0.029215
C     -0.943176   -0.932959   -0.631326
C     -0.282144    4.304600   -0.713584
S      0.173159    5.969884   -0.612443
C     -1.263328    6.511415   -1.369118
C     -2.077965    5.460140   -1.695678
N     -3.282311    5.629427   -2.308569
C     -3.887397    4.429296   -2.519577
C     -3.355700    3.185832   -2.160799
N     -2.156719    2.993014   -1.548697
C     -1.518412    4.180331   -1.320213
H     -2.581295   -2.299662   -0.334680
H     -1.789024   -2.425209   -1.933996
H     -0.790848   -4.309846   -0.290712
H      1.679210   -5.274125    1.008490
H      4.117882   -4.671525    2.169147
H      4.210917    2.048159    1.688375
H      2.365424    4.262007    0.601144
H     -1.362643    0.022153   -0.914198
H     -1.442226    7.563480   -1.537661
H     -4.856714    4.486981   -3.007022
H     -3.911248    2.275695   -2.369099
