42

C     -3.217407   -1.919969   -3.558868
O     -2.216001   -1.415304   -2.685060
C     -2.062237   -0.000193   -2.815429
C     -1.033463    0.508991   -1.806845
N     -1.611090    0.781260   -0.490932
C     -2.230201    1.963907   -0.132049
C     -2.408564    3.122190   -1.050874
C     -2.625596    1.841733    1.184040
C     -2.193692    0.580202    1.662818
C     -2.394240    0.066047    3.006312
N     -1.454343   -0.319063    3.817285
N     -0.151878   -0.175582    3.430748
C      0.865966   -0.679568    4.222904
O      0.714602   -1.302316    5.269634
C      2.241093   -0.467110    3.712259
C      3.243702   -1.387417    4.027117
C      4.535210   -1.189322    3.544305
C      4.780549   -0.070036    2.764737
N      3.839184    0.848237    2.451428
C      2.593457    0.635570    2.944671
C     -1.590977   -0.075798    0.595093
C     -1.028583   -1.458575    0.527331
H     -3.276788   -3.003327   -3.424965
H     -2.958436   -1.709389   -4.600942
H     -4.191335   -1.484130   -3.316234
H     -1.696665    0.206266   -3.827966
H     -3.032322    0.492320   -2.684769
H     -0.596740    1.450504   -2.156995
H     -0.211524   -0.202108   -1.676739
H     -2.995128    3.912439   -0.570539
H     -2.936238    2.825436   -1.961894
H     -1.438923    3.548232   -1.326703
H     -3.146094    2.602015    1.754123
H     -3.435962    0.034817    3.366562
H      0.032678    0.238930    2.524264
H      3.018226   -2.254006    4.645074
H      5.329826   -1.890831    3.773703
H      5.771569    0.126565    2.364622
H      1.884951    1.422189    2.703272
H      0.059772   -1.423083    0.416754
H     -1.450849   -2.017160   -0.311306
H     -1.255681   -2.027348    1.434109
