46

C      3.517742    2.877094   -1.590555
C      2.215999    2.869091   -2.087328
C      1.495259    1.675092   -2.141951
C      2.070103    0.477584   -1.697261
C      1.286750   -0.811608   -1.737753
C      0.858270   -1.256665   -0.340051
N      0.055010   -2.454865   -0.376155
N      0.643668   -3.625393   -0.685854
N     -0.310635   -4.535943   -0.589469
N     -1.493309   -3.964808   -0.203898
C     -1.263612   -2.668976   -0.071677
C     -2.273279   -1.643180    0.375414
C     -2.563581   -0.665732   -0.762740
C     -2.093586    0.619446   -0.982558
C     -2.613225    1.202878   -2.173551
C     -3.462361    0.348387   -2.836586
S     -3.641182   -1.140631   -2.021011
N     -1.892731   -0.954796    1.649694
C     -3.036406   -0.147893    2.165445
C     -2.703866    0.510301    3.513723
O     -2.377474   -0.474960    4.498018
C     -1.261468   -1.254863    4.059024
C     -1.556377   -1.942386    2.715391
C      3.382890    0.495757   -1.205577
C      4.101800    1.690715   -1.151787
H      4.079700    3.806636   -1.551544
H      1.763931    3.793409   -2.437708
H      0.484853    1.687508   -2.542920
H      1.903598   -1.582743   -2.217461
H      0.407113   -0.696091   -2.383655
H      1.731317   -1.481014    0.285576
H      0.305949   -0.468171    0.174253
H     -3.203367   -2.198820    0.573623
H     -1.414420    1.128724   -0.308279
H     -2.378669    2.200292   -2.525281
H     -3.994371    0.527687   -3.761211
H     -3.304423    0.650564    1.467699
H     -3.917604   -0.790456    2.294755
H     -1.872787    1.219361    3.416775
H     -3.573741    1.065890    3.878479
H     -1.064283   -2.011050    4.825653
H     -0.374738   -0.613113    3.989514
H     -0.664788   -2.517162    2.444748
H     -2.389709   -2.644620    2.850125
H      3.858734   -0.422348   -0.866724
H      5.120192    1.695220   -0.771496
