30

O      1.822200    4.755032   -1.379848
C      1.222504    3.837417   -1.923975
C      0.990058    3.858037   -3.380922
C      0.339306    2.871327   -4.001314
C     -0.185731    1.702560   -3.267824
O     -0.777653    0.815898   -3.868066
C      0.030691    1.652080   -1.807704
C     -0.451238    0.559997   -1.070610
C     -0.263270    0.478388    0.322583
C     -0.795660   -0.699674    1.042954
N     -1.440500   -1.682695    0.445982
C     -1.822413   -2.648012    1.360788
C     -2.528003   -3.832469    1.067896
C     -2.849277   -4.723075    2.097490
C     -2.476579   -4.446923    3.409207
C     -1.776030   -3.278344    3.724589
C     -1.459269   -2.391886    2.681750
S     -0.618743   -0.894772    2.745466
C      0.424980    1.529774    0.952819
C      0.907460    2.621569    0.219939
C      0.709484    2.681770   -1.162115
H      1.376207    4.716861   -3.917858
H      0.166503    2.882750   -5.071491
H     -0.981584   -0.239838   -1.590530
H     -2.816467   -4.043234    0.042779
H     -3.393820   -5.635964    1.867451
H     -2.732734   -5.148167    4.200903
H     -1.485840   -3.064144    4.748643
H      0.603266    1.527284    2.026158
H      1.437334    3.422088    0.734699
