43

C     -3.346468    2.513371    3.647446
C     -4.605294    1.967102    4.296634
C     -4.937636    0.738349    3.866942
C     -3.932839    0.374904    2.905819
C     -2.957757    1.380951    2.726297
C     -1.837157    1.297581    1.832653
C     -0.911211    2.359421    1.719689
C      0.189674    2.300126    0.854122
C      0.374648    1.164542    0.087223
C      1.428331    0.871232   -0.869211
C      1.216173   -0.359376   -1.376122
C     -0.046517   -0.981096   -0.789603
C     -0.508438    0.084458    0.156315
C     -1.619108    0.122592    1.016599
C     -2.623250   -0.872177    1.223196
C     -2.765994   -2.107313    0.644085
O     -3.880391   -2.732024    1.140446
C     -4.460217   -1.888011    2.048004
C     -3.722682   -0.740335    2.127807
C      2.094927   -0.919230   -2.347969
S      1.431414   -1.833035   -3.677034
C      2.973995   -2.153311   -4.375092
C      3.969091   -1.605947   -3.615131
C      5.389310   -1.636128   -3.788258
C      6.092876   -1.006172   -2.822768
Si     4.934400   -0.258434   -1.498310
C      3.458369   -0.918950   -2.479247
H     -2.573839    2.695647    4.399946
H     -3.568605    3.424404    3.084317
H     -5.167712    2.526488    5.031562
H     -5.777476    0.135062    4.167279
H     -1.039446    3.261638    2.314734
H      0.880808    3.134896    0.791573
H      2.214067    1.567572   -1.113789
H      0.195469   -1.905555   -0.256186
H     -0.794867   -1.159900   -1.567609
H     -2.218188   -2.679630   -0.089642
H     -5.358308   -2.256622    2.522225
H      3.050979   -2.728824   -5.286650
H      5.854185   -2.131496   -4.632947
H      7.163140   -0.903398   -2.746372
H      5.030689    1.223558   -1.483448
H      5.141640   -0.920501   -0.186225
