44

Si     1.547822    2.825229    4.875685
C      2.956588    1.945586    5.747400
C      3.406905    0.881180    5.063380
C      2.697843    0.643198    3.797126
C      3.015650   -0.369039    2.916774
C      2.270442   -0.511717    1.737989
C      1.164954    0.307808    1.384444
C      0.913071    1.408503    2.271660
C      1.659410    1.544040    3.477805
C     -0.092120    2.349435    1.841700
N     -0.482121    3.454160    2.505989
S     -1.611610    4.224483    1.584245
N     -1.677156    3.201747    0.292594
C     -0.815917    2.192897    0.532876
C     -0.589430    1.072585   -0.323647
C     -1.326867    1.015936   -1.566450
C     -1.255514   -0.050494   -2.474389
C     -2.002854   -0.092766   -3.719705
S     -1.563053    0.986148   -4.992134
C     -2.788820    0.394722   -6.037098
C     -3.520555   -0.595954   -5.435707
N     -4.555556   -1.231203   -6.052205
C     -5.105048   -2.164427   -5.226375
C     -4.673438   -2.444054   -3.923540
N     -3.640276   -1.825091   -3.289218
C     -3.070703   -0.880581   -4.093737
C     -0.440419   -1.084086   -1.999311
C     -0.265529   -2.269314   -2.679646
S      0.677292   -3.381721   -1.791022
C      0.859535   -2.277167   -0.491272
C      0.313415   -1.037014   -0.746697
C      0.358713    0.090069    0.163912
H      1.965010    4.189840    4.463966
H      0.295588    2.722888    5.667684
H      3.328799    2.302088    6.695350
H      4.215381    0.241002    5.390679
H      3.843577   -1.043625    3.117068
H      2.635394   -1.271552    1.055275
H     -1.991605    1.846511   -1.815539
H     -2.913356    0.799595   -7.030836
H     -5.941805   -2.711975   -5.651511
H     -5.174784   -3.208577   -3.336245
H     -0.669674   -2.573346   -3.635333
H      1.350956   -2.655068    0.389677
