36

O      2.257347    1.083423    2.448075
C      1.928039    0.879469    1.283469
C      1.155024    1.861039    0.512976
C      0.714510    3.041582    1.122571
C      0.022301    3.992598    0.372644
C     -0.218679    3.767854   -0.982438
C      0.225424    2.589632   -1.585860
C      0.901870    1.627794   -0.834460
O      1.294313    0.508162   -1.504845
C      1.584836   -0.667512   -0.720787
C      0.325617   -1.587303   -0.600821
C     -0.320028   -1.792639   -1.989204
C     -0.767771   -1.024107    0.326384
C      0.824556   -2.960111   -0.145725
O      0.400569   -3.279028    1.105204
C      0.889562   -4.528931    1.596016
O      1.556533   -3.669860   -0.826456
C      2.305573   -0.361328    0.568754
C      3.280810   -1.135403    1.075169
O      3.956483   -0.920155    2.248301
H      0.917357    3.226709    2.175476
H     -0.319285    4.912177    0.842183
H     -0.749801    4.512250   -1.571184
H      0.037939    2.420020   -2.643435
H      2.309607   -1.203074   -1.351828
H     -1.112169   -2.549695   -1.946042
H      0.415287   -2.136952   -2.725720
H     -0.764934   -0.866970   -2.370335
H     -1.182675   -0.086513   -0.056048
H     -0.397037   -0.842716    1.340454
H     -1.604158   -1.728260    0.416424
H      0.492195   -4.675281    2.604111
H      1.982520   -4.516694    1.652449
H      0.541631   -5.350964    0.962843
H      3.642143   -2.042605    0.602096
H      3.564113   -0.131626    2.689125
