40

Si    -4.909268    0.713091   -0.861133
C     -3.440468   -0.388653   -1.129008
C     -2.498332   -0.181403   -0.189828
C     -1.242825   -0.826390   -0.091624
C     -0.607864   -1.770761   -0.899221
O     -0.851307   -2.486575   -2.024021
C      0.292927   -3.231363   -2.245665
C      1.246019   -2.970464   -1.268183
C      0.624638   -2.027701   -0.427378
N      0.814249   -1.255488    0.692990
C     -0.346814   -0.546167    0.937145
C     -0.637137    0.420411    2.002349
C      0.150034    0.735852    3.129688
C      1.319722    0.126503    3.520985
S      1.978888    0.814384    4.955792
C      0.675825    1.914857    5.108323
C     -0.228905    1.756575    4.087599
C     -1.388971    2.524009    4.027427
C     -2.200451    2.181727    2.925363
C     -1.871655    1.176525    1.950364
C     -2.827105    0.855794    0.831046
C     -4.038288    1.425439    0.639105
C      0.380205   -4.126019   -3.375119
C     -0.605816   -4.342117   -4.320292
C     -0.218942   -5.286599   -5.315476
C      1.053367   -5.764483   -5.100060
S      1.768555   -5.075760   -3.708367
H     -5.081144    1.721954   -1.934156
H     -6.134824   -0.033966   -0.488829
H     -3.389786   -1.085382   -1.951280
H      2.234333   -3.397454   -1.185606
H      1.689817   -1.232640    1.194519
H      1.857807   -0.699284    3.091353
H      0.644571    2.602950    5.942118
H     -1.672456    3.285734    4.742293
H     -3.136512    2.729316    2.830471
H     -4.526798    2.187511    1.221480
H     -1.566469   -3.840616   -4.296016
H     -0.842851   -5.597340   -6.144419
H      1.599711   -6.485672   -5.692267
