41

Si     4.080700   -0.249282    3.350048
C      5.948953    0.010615    3.378377
C      6.399289    0.470657    2.196481
C      5.380811    0.663250    1.175871
C      4.124187    0.359135    1.559652
C      2.912272    0.443431    0.742767
C      2.564039   -0.701025    0.016164
C      1.429289   -0.738824   -0.793079
C      1.146219   -1.932815   -1.481862
C      0.011542   -1.961664   -2.282025
O     -0.411297   -3.037953   -3.017706
C     -1.554838   -2.651892   -3.653347
C     -2.411625   -3.360400   -4.539664
C     -3.447787   -2.593347   -4.944391
Si    -3.375173   -0.830452   -4.169780
C     -1.823080   -1.341953   -3.301428
C     -0.845835   -0.876959   -2.431587
C     -0.548119    0.309575   -1.737906
C      0.600306    0.409937   -0.899203
C      0.956265    1.602130   -0.169667
C      0.193207    2.799074   -0.221532
C      0.546690    3.953218    0.481002
C      1.684542    3.955161    1.264627
C      2.459951    2.801465    1.344339
C      2.122382    1.613872    0.647660
H      3.388086    0.689101    4.268235
H      3.725059   -1.685865    3.466641
H      6.532663   -0.200097    4.260331
H      7.440094    0.688921    1.990735
H      5.643922    1.024982    0.188979
H      3.200441   -1.583237    0.089485
H      1.776628   -2.811684   -1.404863
H     -2.230706   -4.384641   -4.834894
H     -4.249135   -2.864617   -5.612685
H     -3.189271    0.193754   -5.227405
H     -4.541752   -0.606191   -3.280392
H     -1.225493    1.145312   -1.866316
H     -0.708849    2.861519   -0.823066
H     -0.069176    4.845558    0.407871
H      1.974844    4.847007    1.812870
H      3.352774    2.843180    1.965340
