45

C     -3.327848    1.988308   -3.332839
C     -2.542420    2.377387   -2.121399
C     -1.545696    1.499876   -1.936115
C     -0.546973    1.482654   -0.900393
C     -0.319667    2.372315    0.216455
C      0.744285    1.958329    0.929797
C      1.300679    0.708167    0.283584
C      0.383485    0.504379   -0.884196
C      0.415790   -0.558915   -1.898571
C      1.343927   -1.607646   -1.954255
C      2.403316   -1.893464   -1.119269
O      3.067641   -3.024350   -1.534054
C      2.432875   -3.484542   -2.657080
C      1.402403   -2.637572   -2.908221
C      0.437799   -2.654837   -3.942182
C      0.287145   -3.557062   -4.990763
C     -0.807484   -3.091070   -5.685320
N     -1.277696   -1.953706   -5.059471
C     -0.514920   -1.643812   -3.949586
C     -0.559440   -0.604787   -2.971871
C     -1.580049    0.471944   -2.985903
C     -2.613577    0.750637   -3.800361
C      1.298529    2.583950    2.131013
C      0.788723    3.743917    2.737682
N      1.243168    4.396480    3.860304
C      2.325874    3.929390    4.540892
C      2.958006    2.767322    4.061108
N      4.031326    2.168774    4.602149
S      4.361707    0.852173    3.651891
N      3.162563    0.983282    2.517184
C      2.432668    2.073495    2.823051
H     -3.294196    2.772578   -4.094728
H     -4.368079    1.767957   -3.075832
H     -2.761357    3.235721   -1.505827
H     -0.944786    3.231229    0.404449
H      2.327761    0.873263   -0.058105
H      1.242535   -0.141847    0.971331
H      2.825433   -1.445358   -0.232362
H      2.841243   -4.377227   -3.106849
H      0.876733   -4.431060   -5.231121
H     -1.299570   -3.465282   -6.573228
H     -2.074115   -1.427924   -5.380722
H     -2.939973    0.215457   -4.671991
H     -0.082144    4.239717    2.308717
H      2.648137    4.474310    5.418049
