30

O     -0.065457    4.877560    3.097635
C      0.409831    3.760806    3.087294
N      1.130577    3.143776    4.063121
C      1.507528    1.884437    3.710772
O      2.152865    1.085108    4.357122
C      0.978452    1.655913    2.366775
C      1.071309    0.547834    1.545094
C      0.453756    0.615027    0.283914
C      0.499381   -0.507439   -0.652210
N     -0.026136   -0.598622   -1.862103
C      0.321299   -1.857481   -2.277225
C      0.064455   -2.548539   -3.464022
C      0.567145   -3.837833   -3.574555
O      0.448854   -4.701249   -4.623261
C      1.122816   -5.809684   -4.200244
N      1.650645   -5.730849   -2.996762
C      1.303295   -4.471857   -2.581347
C      1.559634   -3.779983   -1.394882
C      1.056633   -2.490851   -1.285171
O      1.175288   -1.628856   -0.237000
C     -0.232389    1.801582   -0.093207
C     -0.312048    2.911513    0.758450
C      0.306683    2.804474    1.985453
H      1.359064    3.571176    4.946301
H      1.607618   -0.335418    1.880560
H     -0.505181   -2.094161   -4.265942
H      1.158969   -6.642036   -4.889441
H      2.129428   -4.235354   -0.593531
H     -0.712164    1.854984   -1.071907
H     -0.836767    3.815882    0.467269
