42

C     -3.668720   -1.082557    1.844515
C     -4.580579    0.009729    1.316863
O     -3.910931    0.756199    0.289838
C     -3.126388    1.787941    0.723204
O     -2.975368    2.108600    1.894542
C     -2.475741    2.461700   -0.478974
N     -1.342368    3.292308   -0.084551
C     -1.571841    4.644165    0.131935
O     -2.654963    5.192120   -0.076316
C     -0.397207    5.406275    0.731870
O      0.910453    4.967954    0.415333
C      1.020847    3.604574    0.404445
C      2.305829    3.103586    0.590903
C      2.530363    1.727244    0.576308
C      1.478493    0.818708    0.364277
C      1.758235   -0.696405    0.367284
C      2.362001   -1.110729    1.727024
C      2.757651   -1.039386   -0.758349
C      0.501763   -1.569200    0.144619
C      0.191633    1.355046    0.152049
C     -0.053453    2.740944    0.165681
H     -4.187802   -1.696875    2.585543
H     -3.327713   -1.726687    1.027271
H     -2.772928   -0.657588    2.308420
H     -4.931970    0.665059    2.121996
H     -5.467146   -0.440453    0.858456
H     -3.243449    3.071931   -0.967076
H     -2.142594    1.713614   -1.205712
H     -0.473643    6.444077    0.388838
H     -0.517184    5.410821    1.822252
H      3.135544    3.786449    0.754391
H      3.547239    1.374356    0.735551
H      3.324321   -0.624139    1.919779
H      2.537021   -2.192200    1.768791
H      1.689584   -0.849453    2.552800
H      2.950940   -2.117696   -0.800440
H      3.725539   -0.545822   -0.617812
H      2.370352   -0.731383   -1.736826
H      0.034893   -1.365365   -0.826078
H     -0.248365   -1.403924    0.926899
H      0.754159   -2.636321    0.161195
H     -0.632553    0.672563   -0.014136
