39

C     -3.354108   -2.936374   -2.023644
O     -2.167320   -2.169457   -1.802696
C     -1.698100   -1.527458   -2.917058
C     -2.594533   -0.878840   -3.809065
C     -2.098661   -0.136248   -4.883662
C     -0.725056   -0.003925   -5.074541
C      0.159868   -0.593634   -4.169875
C     -0.304877   -1.354360   -3.072970
C      0.671315   -1.868555   -2.100256
C      0.680624   -2.395243   -0.832317
C      2.158728   -2.370156   -0.220687
C      1.780688   -2.501420    1.131143
O      1.440127   -3.583130    1.617671
N      1.680043   -1.305867    1.908036
C      2.278189   -0.029248    1.516382
C      1.286498    1.112804    1.796299
C      0.513516    0.945820    3.105637
C      1.138252   -0.104978    4.030524
C      1.266270   -1.448384    3.306247
N      2.785631   -2.115286   -1.425899
O      1.967926   -1.786211   -2.440703
H     -3.366198   -3.370807   -3.033383
H     -4.222946   -2.293071   -1.854253
H     -3.385458   -3.759174   -1.289686
H     -3.651096   -0.908376   -3.648090
H     -2.789363    0.345458   -5.581988
H     -0.356355    0.550372   -5.920899
H      1.225515   -0.427031   -4.341475
H     -0.213912   -2.575132   -0.250649
H      3.217040    0.115033    2.058959
H      2.529213   -0.003793    0.460998
H      0.578415    1.100989    0.940331
H      1.784589    2.072882    1.782921
H      0.428552    1.919712    3.566266
H     -0.518866    0.628850    2.876950
H      0.555086   -0.219341    4.955354
H      2.135815    0.234907    4.354389
H      0.273358   -1.933895    3.269617
H      1.959433   -2.159284    3.815062
