41

Si     3.428783   -2.408230    3.380337
C      3.880398   -3.906986    4.487224
C      3.212929   -5.017374    4.104708
C      2.333342   -4.836138    2.990805
C      1.509863   -5.724778    2.355653
S      0.655002   -4.950771    1.070815
C      1.396214   -3.411326    1.369650
C      2.262986   -3.537263    2.417732
C      1.033600   -2.271353    0.541594
C     -0.278849   -1.775342    0.450098
C     -0.675816   -0.684085   -0.330830
N     -1.969955   -0.384515   -0.262951
C     -2.437997    0.658810   -0.990044
C     -1.678426    1.473031   -1.824020
C     -0.298506    1.176997   -1.912933
C      0.466774    2.006019   -2.761271
C     -0.103853    3.060377   -3.473696
C     -1.469114    3.327328   -3.364080
C     -2.051994    4.385110   -4.076268
C     -3.410743    4.636517   -3.955761
C     -4.141657    3.817113   -3.123059
N     -3.609278    2.790557   -2.423771
C     -2.282969    2.533347   -2.532521
C      0.222783    0.065546   -1.142876
C      1.597496   -0.401627   -1.087367
N      2.652237    0.116846   -1.744137
S      3.983921   -0.777396   -1.351005
N      3.312913   -1.867014   -0.309828
C      2.000305   -1.586154   -0.230494
H      2.734141   -1.364025    4.174988
H      4.627110   -1.941257    2.640277
H      4.589170   -3.805397    5.292819
H      3.325752   -5.976208    4.597353
H      1.350744   -6.773832    2.561228
H     -1.056110   -2.272345    1.035886
H     -3.508202    0.826369   -0.871394
H      1.534091    1.850094   -2.890751
H      0.533074    3.667459   -4.113767
H     -1.450724    5.015879   -4.726568
H     -3.884071    5.447967   -4.496190
H     -5.209570    3.963719   -2.987432
