26

C     -0.053254    1.837129   -1.155000
C     -0.576582    0.418907   -1.067571
N     -0.777349   -0.360687   -2.089852
N     -0.464763    0.149718   -3.323970
C     -1.427848    0.728348   -4.136153
N     -0.966233    0.929414   -5.409535
S     -2.974417    1.200875   -3.759561
C     -0.785861   -0.149119    0.289031
C      0.263888   -0.063438    1.215358
C      0.147039   -0.664756    2.473556
C     -1.010517   -1.365640    2.816773
C     -2.060524   -1.463724    1.905128
C     -1.934994   -0.854567    0.648260
N     -3.082783   -0.899855   -0.227510
O     -3.696390    0.163523   -0.383875
O     -3.419943   -2.011227   -0.657455
H     -0.668634    2.428921   -1.836185
H      0.977262    1.821514   -1.521450
H     -0.074831    2.332895   -0.180537
H      0.069482   -0.525492   -3.866160
H     -1.584217    1.461216   -6.013285
H      0.021372    1.097501   -5.545220
H      1.190731    0.446523    0.961284
H      0.968154   -0.596567    3.184866
H     -1.093262   -1.833765    3.795583
H     -2.967540   -2.000466    2.176048
