33

C      2.264040    3.553047   -4.554875
C      0.988039    3.869448   -5.003993
N     -0.171743    3.445233   -4.451622
C      0.020348    2.653162   -3.380467
N     -0.985622    2.093298   -2.646484
C     -0.469467    1.341027   -1.615927
C     -1.122604    0.597963   -0.622457
C     -0.344356   -0.095545    0.323750
C     -0.990865   -0.888673    1.384151
C     -1.915742   -0.291291    2.264276
C     -2.553124   -1.007834    3.288008
C     -2.221736   -2.356874    3.392303
N     -2.615355   -3.359147    4.233254
N     -2.011893   -4.523518    3.944308
N     -1.210066   -4.308686    2.908178
C     -1.318878   -2.990760    2.551716
C     -0.691671   -2.258111    1.534311
C      1.054567   -0.020168    0.240980
C      1.695887    0.728268   -0.756898
C      0.921711    1.423301   -1.705197
C      1.229981    2.257031   -2.824017
C      2.403525    2.727443   -3.438285
H      3.137604    3.942737   -5.066225
H      0.862150    4.511505   -5.873057
H     -1.963520    2.226791   -2.850490
H     -2.207680    0.548865   -0.593345
H     -2.141859    0.770335    2.161369
H     -3.258905   -0.528627    3.957472
H     -3.270876   -3.328134    5.003854
H      0.007025   -2.758785    0.871562
H      1.670888   -0.543750    0.970393
H      2.780595    0.769138   -0.792963
H      3.383607    2.458842   -3.059481
