35

C      1.463351   -2.580602    2.810399
C      0.051506   -2.061934    2.807377
C     -0.516883   -1.590954    4.000963
C     -1.822798   -1.106336    4.019370
C     -2.570080   -1.088205    2.846180
C     -2.015357   -1.555639    1.651550
C     -0.706995   -2.045881    1.621210
O     -0.065111   -2.520636    0.508788
C     -0.767504   -2.594046   -0.730122
C     -0.706415   -1.275444   -1.498299
C      0.729012   -0.783274   -1.686113
C      0.799483    0.482327   -2.527435
O     -0.194763    0.959530   -3.060642
N      2.090883    0.957405   -2.596441
C      2.534822    2.066751   -3.266989
N      3.804214    2.403612   -3.238303
C      3.993366    3.550130   -3.986026
C      2.860005    4.066975   -4.574264
S      1.514814    3.083593   -4.176576
H      1.912995   -2.517660    3.806972
H      1.481681   -3.631464    2.503898
H      2.085224   -1.991086    2.128835
H      0.057326   -1.599386    4.924586
H     -2.255602   -0.742439    4.947456
H     -3.588289   -0.707537    2.857597
H     -2.635799   -1.514399    0.763327
H     -0.260292   -3.365227   -1.322422
H     -1.795159   -2.953050   -0.604574
H     -1.272872   -0.501828   -0.967442
H     -1.191970   -1.410391   -2.472206
H      1.184997   -0.572123   -0.711677
H      1.325214   -1.555770   -2.186178
H      2.829420    0.474354   -2.104569
H      4.987867    3.971213   -4.070062
H      2.759534    4.943981   -5.196759
