50

C      1.884517    1.302506   -6.156219
N      2.977156    1.611620   -5.258677
C      4.181691    2.165527   -5.645647
C      4.657496    2.566525   -6.906088
C      5.948075    3.098226   -6.987640
C      6.740617    3.229384   -5.852668
C      6.257738    2.832847   -4.601927
C      4.957814    2.293716   -4.491740
C      4.179961    1.816412   -3.391111
C      4.419961    1.706174   -2.006259
C      3.422538    1.194389   -1.166025
C      2.184175    0.790539   -1.675303
C      1.143131    0.244333   -0.795602
C      0.407537   -0.913721   -0.949732
C     -0.536349   -1.105814    0.101143
C     -0.510785   -0.088914    1.037437
C     -1.323338    0.083758    2.240648
C     -0.833448    0.588482    3.468320
C     -1.638774    0.745664    4.625274
C     -3.005819    0.401791    4.662332
C     -3.828454    0.576684    5.849461
C     -4.050489    1.729882    6.578836
C     -4.896886    1.510016    7.704769
C     -5.281512    0.192709    7.808699
S     -4.620356   -0.768960    6.559568
C     -3.532735   -0.099047    3.447340
N     -4.778742   -0.485142    3.134666
O     -4.741534   -0.882773    1.815314
N     -3.480572   -0.746344    1.273710
C     -2.699953   -0.259427    2.251129
S      0.666395    1.088970    0.616232
C      1.938115    0.889131   -3.056030
C      2.946217    1.403117   -3.893245
H      1.372691    0.401858   -5.808746
H      1.200745    2.154736   -6.163300
H      2.270324    1.114122   -7.160312
H      4.050996    2.473143   -7.800974
H      6.336180    3.413837   -7.953416
H      7.741476    3.645279   -5.935280
H      6.880852    2.942830   -3.719356
H      5.373385    2.017111   -1.589404
H      3.635103    1.109520   -0.102539
H      0.542161   -1.600012   -1.777159
H     -1.204023   -1.957772    0.159707
H      0.218796    0.865917    3.548544
H     -1.167775    1.139085    5.527420
H     -3.634883    2.694468    6.312250
H     -5.207540    2.278744    8.401562
H     -5.917912   -0.255527    8.559333
H      0.978977    0.586255   -3.465216
