32

C      0.064850    4.202541    1.501937
C     -1.024679    5.054779    1.525868
N     -2.297937    4.701313    1.263203
C     -2.458233    3.395722    0.958527
S     -4.000467    2.775871    0.599080
C     -3.375632    1.214183    0.354271
N     -4.190503    0.194858    0.015358
C     -3.554021   -0.988929   -0.146345
C     -2.189323   -1.230073    0.001654
C     -1.584487   -2.557836   -0.195717
C     -0.262499   -2.970369   -0.090911
C     -0.183067   -4.360484   -0.378639
C      0.856378   -5.296761   -0.428019
N      0.601850   -6.590888   -0.744038
C     -0.671286   -6.958492   -1.009692
C     -1.767111   -6.108206   -0.987079
C     -1.476523   -4.785554   -0.659663
N     -2.298642   -3.689156   -0.543982
C     -1.401282   -0.127203    0.354635
C     -2.000547    1.142722    0.540343
C     -1.457490    2.429936    0.897134
C     -0.143037    2.862691    1.182911
H      1.059248    4.573055    1.727404
H     -0.890988    6.106131    1.771876
H     -4.239927   -1.786414   -0.418600
H      0.579440   -2.341814    0.167788
H      1.890234   -5.045080   -0.222393
H     -0.797555   -8.010285   -1.254691
H     -2.767317   -6.456006   -1.208490
H     -3.295188   -3.728507   -0.698396
H     -0.329231   -0.224290    0.490773
H      0.691993    2.169109    1.155860
