43

C      2.503825    4.443051    0.796370
C      3.003310    3.321947   -0.103923
C      1.972369    2.889058   -1.142396
C      0.822308    2.107819   -0.531291
O     -0.131405    2.699874   -0.023668
C      0.831135    0.606508   -0.558801
C      2.051622   -0.073062   -0.706276
C      2.083550   -1.464258   -0.729242
C      0.899149   -2.191410   -0.633439
C     -0.317728   -1.529988   -0.463651
C     -0.374964   -0.129837   -0.418433
N     -1.600919    0.566561   -0.253652
C     -2.866425    0.051205   -0.054155
O     -3.159021   -1.136813    0.035360
C     -3.963345    1.047084    0.102467
C     -5.113752    0.670604    0.812742
C     -6.169682    1.571147    0.979865
C     -6.088825    2.851525    0.433188
C     -4.955266    3.228778   -0.285433
C     -3.904647    2.326974   -0.450240
F     -2.844943    2.720237   -1.171351
O      0.855654   -3.561350   -0.686225
C      2.077740   -4.108050   -1.193020
C      3.273589   -3.442777   -0.532783
O      3.318210   -2.047083   -0.856335
H      2.187641    5.309710    0.207233
H      1.660302    4.116416    1.411563
H      3.302566    4.766540    1.471540
H      3.306171    2.473794    0.519830
H      3.900085    3.673796   -0.627316
H      2.448375    2.296013   -1.930372
H      1.548655    3.760516   -1.656870
H      2.997159    0.454011   -0.781760
H     -1.210525   -2.141293   -0.381213
H     -1.506386    1.586550   -0.222978
H     -5.188496   -0.327792    1.240848
H     -7.055063    1.270091    1.535476
H     -6.910451    3.552038    0.562305
H     -4.882878    4.219458   -0.724222
H      2.094374   -3.975221   -2.281883
H      2.075425   -5.181523   -0.979780
H      4.204050   -3.895535   -0.889281
H      3.238923   -3.545817    0.558893
