29

C      2.200925   -1.365137    2.979190
C      1.948769   -0.800736    1.607080
O      2.835291   -0.266661    0.948229
N      0.649949   -0.934565    1.171947
C      0.204953   -0.324026   -0.071990
C      0.760264   -1.038337   -1.304854
S      0.072721   -0.413419   -2.878029
C      1.149524    1.040907   -3.156399
C      0.672465    2.353260   -2.524304
N     -0.683780    2.715320   -2.899108
C     -1.740331    2.601630   -2.024665
C     -3.079443    2.914732   -2.636886
O     -1.628168    2.267712   -0.849407
H      2.325345   -0.541783    3.687269
H      1.375443   -2.000317    3.312345
H      3.110225   -1.972068    2.954310
H     -0.062663   -1.181025    1.846721
H     -0.889539   -0.364070   -0.063497
H      0.517499    0.721772   -0.044378
H      1.852948   -0.996411   -1.344819
H      0.497080   -2.100865   -1.247059
H      2.171476    0.813558   -2.836361
H      1.185466    1.176941   -4.243513
H      0.769906    2.327383   -1.436728
H      1.314960    3.166713   -2.879775
H     -0.876041    2.884588   -3.877660
H     -2.975587    3.431886   -3.594751
H     -3.639886    3.563651   -1.958155
H     -3.627649    1.981978   -2.792779
