40

Si    -4.984692   -1.149208    4.348601
C     -5.230828   -1.836030    6.072053
C     -4.053608   -2.191330    6.615243
C     -2.890503   -1.969449    5.769070
C     -3.130320   -1.436647    4.547105
C     -2.117356   -1.127373    3.529825
C     -2.413747   -0.580314    2.288713
C     -1.315829   -0.361160    1.465874
O     -1.384699    0.164006    0.216513
C     -0.115566    0.222341   -0.264166
C      0.257139    0.695450   -1.506288
Si    -0.837804    1.359846   -2.817285
C      0.708354    1.618547   -3.856260
C      1.835714    1.233537   -3.228521
C      1.622492    0.692022   -1.863749
C      2.601638    0.213814   -0.971308
C      3.979137    0.189491   -1.281512
C      4.925468   -0.291061   -0.374607
C      4.521129   -0.760544    0.867355
C      3.168813   -0.752215    1.209421
C      2.191500   -0.271408    0.310150
C      0.799889   -0.266054    0.669868
C     -0.001293   -0.646499    1.802858
C      0.208218   -1.193293    3.066788
N     -0.841986   -1.421857    3.899480
H     -5.332032    0.290598    4.252644
H     -5.586555   -2.009615    3.299626
H     -6.205991   -1.915937    6.525327
H     -3.946057   -2.614005    7.606672
H     -1.900307   -2.228000    6.128557
H     -3.406317   -0.329185    1.948126
H     -1.732407    0.351603   -3.439513
H     -1.476503    2.658032   -2.484380
H      0.640194    2.037064   -4.848683
H      2.817637    1.308879   -3.673538
H      4.339677    0.547385   -2.242286
H      5.979079   -0.296953   -0.642587
H      5.258239   -1.134736    1.573541
H      2.900210   -1.128138    2.189199
H      1.177492   -1.465139    3.463628
