43

C     -0.093481   -1.136834   -4.128723
C      1.156213   -0.908722   -3.244271
C      2.166229   -2.062894   -3.461470
C      1.827192    0.409983   -3.686606
C      2.308343    0.583490   -5.001366
C      2.907709    1.778844   -5.401411
C      3.031143    2.827313   -4.498574
C      2.559518    2.675605   -3.195924
C      1.976543    1.470442   -2.778098
N      1.461783    1.364903   -1.480993
C      0.909879    0.194119   -0.948076
C      0.470823    0.180816    0.386085
C     -0.136084   -0.950155    0.952846
C     -0.583432   -0.951287    2.355437
C     -1.474712    0.034455    2.825571
C     -1.928036    0.070038    4.152598
C     -1.446849   -0.930876    4.993467
N     -1.648634   -1.228740    6.311497
N     -0.955417   -2.313720    6.693248
N     -0.285503   -2.750003    5.633279
C     -0.569605   -1.922212    4.579767
C     -0.127821   -1.941556    3.249404
C     -0.308632   -2.074696    0.138734
C      0.102017   -2.063347   -1.197672
C      0.711021   -0.927970   -1.765457
H      0.155425   -1.175605   -5.195071
H     -0.599442   -2.080221   -3.895031
H     -0.825099   -0.330557   -3.992466
H      2.496043   -2.135817   -4.503657
H      1.741789   -3.040070   -3.206065
H      3.062102   -1.923384   -2.843503
H      2.216741   -0.214097   -5.734678
H      3.270117    1.890764   -6.419915
H      3.486576    3.763937   -4.807683
H      2.646856    3.509101   -2.504420
H      1.809357    2.038044   -0.811590
H      0.613878    1.068773    0.997930
H     -1.841793    0.795363    2.136127
H     -2.617326    0.834771    4.493224
H     -2.226076   -0.754326    6.994131
H      0.566283   -2.712878    2.931045
H     -0.784592   -2.970287    0.533797
H     -0.068710   -2.957551   -1.792492
