37

C     -5.216819   -0.141671    0.440874
C     -4.794582    0.039172    1.868456
C     -3.457501    0.018399    1.939201
C     -2.582718    0.146338    3.046806
C     -2.813175    0.335047    4.422884
C     -1.572765    0.387247    5.024452
N     -0.611736    0.235799    4.051614
C     -1.214550    0.086172    2.827468
C     -0.568395   -0.103448    1.515067
C      0.825811   -0.153055    1.379354
C      1.316595   -0.336336    0.088169
O      2.633931   -0.410285   -0.243077
C      2.715111   -0.593119   -1.600269
C      1.433384   -0.633881   -2.123214
C      0.527292   -0.469459   -1.043815
C     -0.871542   -0.419643   -0.907323
C     -1.421689   -0.236316    0.374150
C     -2.889002   -0.173025    0.600104
C     -3.902268   -0.267389   -0.279160
C      3.959629   -0.714290   -2.297823
C      5.243398   -0.674241   -1.779591
C      6.139488   -0.838985   -2.863062
C      5.356506   -0.970630   -3.983206
O      4.042054   -0.897183   -3.655495
H     -5.778850    0.726020    0.083159
H     -5.818901   -1.046944    0.319597
H     -5.471984    0.165130    2.698168
H     -3.766213    0.423767    4.926644
H     -1.289015    0.518919    6.059834
H      0.384587    0.235651    4.219350
H      1.507621   -0.057354    2.212586
H      1.189452   -0.767704   -3.168040
H     -1.501344   -0.522314   -1.784030
H     -3.821316   -0.411334   -1.344830
H      5.493100   -0.540706   -0.735815
H      7.219592   -0.859092   -2.830656
H      5.568522   -1.115462   -5.033426
