43

Si    -3.566433   -2.014260    5.350075
C     -4.169926   -1.081997    6.865620
C     -3.851683    0.223235    6.796928
C     -3.128235    0.625190    5.600278
C     -2.867183   -0.365152    4.720225
C     -2.168792   -0.243097    3.445305
C     -2.559311    0.711946    2.507124
C     -1.883180    0.813895    1.289409
C     -0.818924   -0.045432    1.020155
N     -0.422673   -0.978024    1.919214
C     -1.091088   -1.051005    3.097030
C     -0.062142    0.021833   -0.228191
C      0.281327    1.222336   -0.913356
C      1.023713    1.287940   -2.147788
C      1.513503    0.160435   -2.857927
C      2.239360    0.218277   -4.111058
C      1.878880   -0.479931   -5.274002
N      2.507122   -0.480712   -6.496581
C      3.627612    0.268852   -6.701376
C      4.112328    1.041416   -5.628838
N      5.191480    1.840411   -5.644871
S      5.308435    2.498804   -4.126513
N      3.992227    1.811799   -3.389425
C      3.398029    1.017644   -4.300017
C      1.177369   -1.011462   -2.169470
C      1.492475   -2.306605   -2.498892
O      0.972350   -3.162862   -1.571219
C      0.337485   -2.408514   -0.626217
C      0.443678   -1.075802   -0.937741
H     -4.685597   -2.515286    4.515069
H     -2.491061   -2.985544    5.670297
H     -4.700008   -1.579647    7.662328
H     -4.101765    0.945799    7.564399
H     -2.827799    1.657601    5.464867
H     -3.396170    1.376581    2.707944
H     -2.204721    1.551573    0.561186
H     -0.701249   -1.803852    3.777519
H     -0.014620    2.176774   -0.473719
H      1.218389    2.283686   -2.552593
H      0.987743   -1.110483   -5.263345
H      4.088231    0.236155   -7.679633
H      2.041052   -2.781710   -3.300018
H     -0.115143   -2.964910    0.182816
