37

C     -1.910294    1.165933   -5.649902
C     -1.623497    0.424256   -4.378620
C     -2.373906    0.674984   -3.225975
C     -2.088850    0.009521   -2.027540
C     -1.042082   -0.909383   -1.959507
N     -0.689846   -1.623085   -0.794936
C     -1.273432   -1.535347    0.456712
O     -2.210318   -0.816402    0.783038
C     -0.615494   -2.481872    1.448337
C     -1.139133   -2.285520    2.868508
C     -0.833991   -0.930931    3.467909
O     -1.434166   -0.464642    4.427593
O      0.239396   -0.340727    2.879992
C      0.554396    0.968067    3.378487
C      1.853605    1.493482    2.779986
F      1.674657    1.729988    1.451925
F      2.121992    2.705544    3.348144
C      3.033958    0.555867    3.003785
F      2.837550   -0.660891    2.432210
F      4.164420    1.059587    2.438375
C     -0.281698   -1.149756   -3.110595
C     -0.565379   -0.485394   -4.308242
H     -1.336258    2.097190   -5.677560
H     -2.976085    1.404069   -5.731199
H     -1.645649    0.560804   -6.523407
H     -3.191120    1.393004   -3.246867
H     -2.706510    0.238222   -1.165054
H      0.096011   -2.254051   -0.889673
H      0.471408   -2.344266    1.411509
H     -0.834683   -3.506668    1.125838
H     -2.227262   -2.417328    2.883060
H     -0.692362   -3.040005    3.525160
H     -0.263113    1.649198    3.114904
H      0.647488    0.941059    4.471089
H      3.233353    0.411522    4.069486
H      0.546737   -1.852810   -3.094874
H      0.047013   -0.683632   -5.184981
