36

C     -1.401681    6.014551   -1.751546
O     -1.026072    5.155957   -0.673330
C     -0.123918    4.189222   -1.019193
O      0.355049    4.056627   -2.137059
C      0.172687    3.335623    0.198992
S      1.370163    1.990471   -0.129341
C      0.341085    0.927103   -1.223389
C      1.218862   -0.130565   -1.884265
C     -0.791929    0.294467   -0.409165
O     -1.961835    0.546619   -0.683501
N     -0.352847   -0.514129    0.616130
C     -1.213848   -1.164712    1.453248
N     -2.520355   -1.235420    1.443637
N     -2.999056   -2.011321    2.483021
C     -2.030836   -2.497112    3.234612
C     -2.266042   -3.375429    4.434038
C     -1.779495   -2.722849    5.727739
C     -1.660857   -4.767388    4.253924
S     -0.454447   -2.029674    2.712704
H     -2.129599    6.736652   -1.371534
H     -0.531360    6.563326   -2.124652
H     -1.872005    5.438535   -2.554631
H      0.616256    3.980971    0.963501
H     -0.756914    2.912522    0.588908
H     -0.105772    1.538449   -2.013172
H      0.606769   -0.802053   -2.497131
H      1.749340   -0.754903   -1.156816
H      1.963082    0.331212   -2.542542
H      0.631661   -0.561720    0.837418
H     -3.352908   -3.506087    4.527800
H     -0.690076   -2.608705    5.743834
H     -2.221581   -1.728551    5.856598
H     -2.061867   -3.329952    6.594720
H     -1.940661   -5.419476    5.088464
H     -2.018110   -5.234456    3.329322
H     -0.566671   -4.735369    4.210882
