39

C     -6.456385   -0.401348   -1.290351
O     -5.724789   -1.483953   -0.728961
C     -5.244630   -1.168886    0.581546
C     -4.446672   -2.347880    1.140933
S     -2.896835   -2.673115    0.226554
C     -1.933622   -1.290825    0.686794
N     -2.256008   -0.489976    1.679439
N     -1.341447    0.536654    1.836598
C     -0.374540    0.458857    0.955669
N      0.708686    1.265944    0.754166
C      0.958392    2.369960    1.539254
O      0.312210    2.719358    2.523537
C      2.210041    3.129418    1.123380
S      1.987943    3.908802   -0.511710
C      3.411842    3.197523   -1.400426
C      3.205810    1.746098   -1.749556
C      3.989699    0.746498   -1.156667
C      3.786326   -0.597327   -1.477059
C      2.801967   -0.956692   -2.394140
C      2.020684    0.029429   -2.999723
C      2.224383    1.371775   -2.681608
S     -0.480942   -0.865553   -0.122066
H     -5.825684    0.490827   -1.364439
H     -6.775630   -0.689452   -2.297147
H     -7.344812   -0.186612   -0.684652
H     -6.107290   -0.988481    1.234159
H     -4.647513   -0.251305    0.546975
H     -4.219513   -2.193968    2.199930
H     -5.046329   -3.259618    1.063040
H      1.290463    1.054844   -0.047856
H      2.389602    3.929304    1.852291
H      3.068961    2.449071    1.160839
H      4.320697    3.342688   -0.804517
H      3.554757    3.765945   -2.328056
H      4.772153    1.004280   -0.444473
H      4.404209   -1.365682   -1.019799
H      2.648562   -2.004168   -2.646425
H      1.255321   -0.248307   -3.721971
H      1.608310    2.127144   -3.164792
