41

C      1.406660    2.440068   -1.656982
C      1.980180    2.006422   -3.007014
C      1.658511    0.723595   -3.288404
C      0.880381    0.185776   -2.228466
C      0.710034    1.188849   -1.240981
C     -0.054798    0.768231   -0.186046
S     -0.552828   -0.865597   -0.432698
C      0.264860   -1.006034   -1.957338
C      0.234671   -2.217582   -2.719749
S     -1.174317   -3.214758   -2.937970
C     -0.345140   -4.369952   -3.940478
C      0.934495   -3.960229   -4.059347
C      2.137489   -4.351404   -4.665874
C      3.062671   -3.367184   -4.296628
O      2.540210   -2.367944   -3.496672
C      1.248582   -2.795358   -3.400128
C     -0.434564    1.499560    0.980796
S     -2.057174    1.940571    1.329652
C     -1.637035    2.765491    2.789654
C     -2.642016    3.412498    3.586449
C     -2.507620    4.402125    4.549467
C     -3.802518    4.702609    5.039754
C     -4.663437    3.888388    4.349704
O     -3.980148    3.114623    3.472606
C     -0.293137    2.648798    2.952040
C      0.635080    3.060094    3.950780
C      1.950501    2.679080    3.665852
S      2.196101    1.783899    2.179107
C      0.406578    1.951039    1.960525
H      0.708261    3.272377   -1.780760
H      2.210119    2.713554   -0.968502
H      2.567566    2.653504   -3.641008
H      1.945058    0.183767   -4.180078
H     -0.852850   -5.233911   -4.344632
H      2.339898   -5.216067   -5.281181
H      4.114642   -3.242857   -4.518708
H     -1.584953    4.870463    4.858239
H     -4.072970    5.426204    5.795613
H     -5.735226    3.746843    4.360505
H      0.385307    3.599762    4.854805
H      2.824798    2.873925    4.272319
