45

C      1.362601    3.979052   -1.933843
C     -0.035019    4.368840   -2.288786
C     -0.859902    3.342170   -2.037994
C     -2.241455    3.200949   -2.336587
C     -3.142878    4.201362   -2.792086
C     -4.416205    3.700398   -2.931177
S     -4.503420    2.053028   -2.493484
C     -2.824009    1.948297   -2.187286
C     -2.100235    0.755495   -1.689606
C     -2.554663   -0.578417   -1.644831
C     -3.670404   -1.076609   -2.280424
S     -3.907870   -2.751715   -2.000761
C     -2.483569   -2.855038   -1.060202
C     -1.836672   -1.642221   -0.964322
C     -0.620672   -1.462470   -0.247212
C      0.054228   -2.470518    0.488847
C      1.209079   -2.146184    1.181951
N      1.685776   -0.885002    1.192979
C      1.021631    0.058812    0.472885
C     -0.117149   -0.132425   -0.324047
C     -0.774738    0.910648   -1.117063
C     -0.115303    2.220376   -1.452428
C      1.187288    2.566251   -1.456240
C      1.994237   -3.101011    1.972319
S      1.710085   -4.829232    1.919471
C      2.970944   -5.206264    3.047655
C      3.551888   -4.048356    3.413624
N      4.589701   -3.893434    4.285669
C      4.754170   -2.510210    4.267433
C      3.827985   -1.890082    3.401771
C      3.026491   -2.916676    2.832679
H      2.014868    4.016628   -2.811330
H      1.768754    4.617353   -1.144010
H     -0.304381    5.309497   -2.743187
H     -2.887087    5.234287   -2.991239
H     -5.305162    4.228336   -3.247845
H     -4.382463   -0.587963   -2.925176
H     -2.210263   -3.815744   -0.648588
H     -0.337634   -3.478914    0.522477
H      1.447559    1.045977    0.620584
H      2.036046    1.948784   -1.208966
H      3.195344   -6.217576    3.355492
H      5.089619   -4.610557    4.796233
H      5.528049   -2.064966    4.879320
H      3.753299   -0.826621    3.214507
