39

C      4.913369   -0.093690   -1.961278
N      3.840256   -1.087326   -2.026950
C      3.913675   -1.982841   -3.184930
C      2.539218   -0.523842   -1.898749
C      2.109380    0.496091   -2.760568
C      0.831546    1.023469   -2.650003
C     -0.036840    0.541618   -1.672334
C      0.340492   -0.480335   -0.765598
C     -0.502450   -1.009959    0.256197
S     -2.131179   -0.339694    0.523978
O     -3.022812   -1.004109   -0.399991
N     -2.584303   -0.884379    2.055358
C     -2.178713   -0.073881    3.212204
C     -2.304926   -0.908340    4.497130
N     -1.927767   -0.173403    5.703048
O     -2.047423    1.101813    0.611441
C     -0.078618   -2.058380    1.086507
C      1.197204   -2.579868    0.944860
C      2.046159   -2.060560   -0.028222
C      1.649660   -1.022630   -0.900312
H      5.876792   -0.604615   -1.855785
H      4.962953    0.526695   -2.862909
H      4.795594    0.555443   -1.086002
H      3.824790   -1.437059   -4.131367
H      3.130964   -2.749102   -3.142461
H      4.876441   -2.505678   -3.186048
H      2.764644    0.875811   -3.538640
H      0.503736    1.807579   -3.327585
H     -1.029557    0.986302   -1.644719
H     -3.530755   -1.265838    2.044453
H     -2.828357    0.805902    3.278378
H     -1.141298    0.259555    3.098085
H     -1.676932   -1.803415    4.419923
H     -3.336783   -1.260568    4.609785
H     -2.499658    0.666318    5.793463
H     -0.963075    0.149249    5.626031
H     -0.731950   -2.483045    1.842958
H      1.537311   -3.388806    1.585985
H      3.046704   -2.482793   -0.115957
