50

C     -3.572020    0.638336   -0.973941
C     -2.649389   -0.162269   -0.095866
C     -2.051860    0.481023    1.004451
C     -1.177949   -0.187398    1.864660
O     -0.686175    0.582003    2.880561
C      0.260975    0.012252    3.788737
C      1.687286    0.042638    3.231999
O      2.169552    1.388349    3.231051
C      3.540538    1.513017    2.848950
C      3.874908    1.053414    1.411191
N      2.950745    1.523240    0.363811
C      3.327258    1.010733   -0.960488
C      4.340316    2.000385   -1.518721
C      4.115432    3.285858   -0.733274
C      2.948680    2.981175    0.194021
C     -0.893754   -1.525311    1.623828
C     -1.478500   -2.181805    0.535260
C     -2.362812   -1.521485   -0.339026
C     -2.967303   -2.281899   -1.513579
C     -3.789971   -3.487556   -1.048019
C     -1.888766   -2.710446   -2.513318
H     -4.576871    0.203989   -0.966311
H     -3.188629    0.669910   -1.998950
H     -3.661515    1.673832   -0.628756
H     -2.261791    1.531357    1.199765
H     -0.038074   -0.996307    4.093893
H      0.220190    0.631918    4.692169
H      1.709151   -0.356269    2.214698
H      2.335393   -0.563143    3.874784
H      3.805674    2.568712    2.968720
H      4.159099    0.958353    3.564954
H      3.848815   -0.043707    1.408598
H      4.912890    1.334496    1.192625
H      3.709039   -0.015862   -0.943376
H      2.434295    1.003442   -1.597910
H      5.364389    1.642603   -1.363274
H      4.197099    2.154382   -2.592864
H      5.015010    3.531916   -0.157127
H      3.896955    4.131850   -1.392531
H      2.010257    3.271112   -0.295626
H      2.996136    3.550101    1.126718
H     -0.219897   -2.094320    2.252741
H     -1.228739   -3.228445    0.373512
H     -3.658853   -1.632391   -2.059859
H     -3.168492   -4.250410   -0.566870
H     -4.560831   -3.182363   -0.331550
H     -4.292012   -3.960610   -1.898948
H     -1.184526   -3.426587   -2.076433
H     -2.343483   -3.185086   -3.389670
H     -1.313364   -1.845452   -2.861777
