24

N      4.282845    2.349651   -0.140787
C      3.287981    1.815730    0.127529
C      2.061040    1.156593    0.467718
C      1.758180   -0.092463   -0.080755
C      0.560819   -0.734509    0.252044
C      1.159769    1.760888    1.349095
C     -0.037590    1.117981    1.681017
C     -0.348281   -0.137912    1.137400
C     -1.608331   -0.821009    1.487536
C     -1.873877   -1.095673    2.778873
C     -3.157632   -1.797545    3.045351
N     -4.031592   -2.167746    2.163483
C     -3.726970   -1.877070    0.864340
N     -4.418798   -2.132177   -0.224420
C     -3.645407   -1.625024   -1.219231
N     -2.498665   -1.064500   -0.840007
N     -2.538044   -1.216479    0.510495
H      2.445561   -0.573635   -0.774583
H      0.342858   -1.703069   -0.196050
H      1.378894    2.737320    1.778097
H     -0.729632    1.616929    2.356979
H     -1.229268   -0.857038    3.614135
H     -3.357674   -2.010835    4.109171
H     -3.928458   -1.666622   -2.263684
