41

Si     5.321753   -2.204625    1.036248
C      4.352195   -3.765273    1.378914
C      3.048594   -3.594613    1.088337
C      2.038143   -4.616910    1.246073
C      0.758649   -4.352983    0.929794
C      0.337979   -3.028131    0.415669
C     -1.009263   -2.813454    0.104930
C     -1.432830   -1.574169   -0.383124
C     -0.523576   -0.524405   -0.575884
C      0.827758   -0.740920   -0.256949
C      1.272108   -1.977632    0.233591
C      2.687051   -2.252860    0.578714
C      3.726104   -1.396905    0.481386
C     -0.977362    0.768287   -1.079217
C     -1.872519    1.613168   -0.364901
C     -2.277575    2.866507   -0.895645
N     -3.112112    3.850107   -0.406393
C     -3.194419    4.898316   -1.302976
C     -2.405084    4.609916   -2.399640
C     -1.858277    3.362458   -2.117302
C     -0.971161    2.551016   -2.867731
C     -0.407066    2.763547   -4.088311
N      0.349612    1.633171   -4.321102
C      0.242908    0.752156   -3.255949
C     -0.587526    1.318542   -2.311132
H      6.288587   -2.370687   -0.076065
H      5.867953   -1.593117    2.271917
H      4.828596   -4.654377    1.759416
H      2.328052   -5.592459    1.621135
H     -0.001508   -5.118036    1.047111
H     -1.741923   -3.605661    0.235813
H     -2.484380   -1.432741   -0.625937
H      1.530883    0.076518   -0.395408
H      3.719440   -0.374581    0.142058
H     -2.241731    1.297080    0.608366
H     -3.592393    3.806130    0.481537
H     -3.810265    5.758377   -1.077205
H     -2.260241    5.232390   -3.271332
H     -0.461577    3.570054   -4.805337
H      0.898593    1.464659   -5.153737
H      0.768215   -0.193193   -3.283802
