43

C     -2.366420    5.534786   -0.028516
C     -3.854650    5.784793   -0.112448
C     -4.563546    4.653188   -0.220979
C     -3.602258    3.574401   -0.217015
C     -2.283826    4.028949   -0.105588
C     -1.153578    3.145677   -0.079717
C      0.220527    3.529176    0.031309
C      0.667385    4.829638    0.131305
S      2.371746    4.952704    0.249020
C      2.548233    3.256532    0.168118
C      1.336741    2.606420    0.054361
C      1.228749    1.193989   -0.029403
C      2.342809    0.304066   -0.003369
C      2.169580   -1.075362   -0.087991
C      0.873184   -1.558841   -0.201824
C     -0.224680   -0.681160   -0.227190
C     -0.119395    0.732643   -0.143279
C     -1.279862    1.680247   -0.168144
C     -2.676395    1.233785   -0.284606
N     -3.121838   -0.033770   -0.383895
S     -4.767785   -0.009445   -0.490041
N     -5.047697    1.615568   -0.419474
C     -3.845524    2.204045   -0.308169
C      3.309105   -1.980321   -0.062106
S      4.573892   -1.903462   -1.232986
C      5.431661   -3.225540   -0.536483
C      4.733435   -3.654170    0.538364
C      4.949069   -4.683878    1.485022
C      3.932809   -4.746036    2.445353
S      2.635915   -3.568109    2.287508
C      3.545332   -2.986074    0.837461
H     -1.984565    5.908296    0.925939
H     -1.866236    6.007158   -0.878803
H     -4.286749    6.775722   -0.086465
H     -5.632732    4.537074   -0.297464
H      0.126550    5.759154    0.146555
H      3.547579    2.849021    0.210402
H      3.353559    0.690430    0.091921
H      0.686699   -2.628514   -0.279512
H     -1.189304   -1.169102   -0.318834
H      6.362846   -3.580969   -0.954319
H      5.795690   -5.359474    1.490486
H      3.865663   -5.440328    3.271984
