36

C      5.904662    2.345188    2.369353
C      5.822164    0.964290    2.258002
C      4.613434    0.362541    1.892455
C      3.445499    1.121627    1.625677
C      3.559955    2.521938    1.746923
C      4.778506    3.122478    2.115058
C      2.428637    3.286749    1.490431
N      1.226067    2.788423    1.133213
C      1.106992    1.460144    1.015360
C     -0.139240    0.964210    0.646500
C     -0.399322   -0.404212    0.487927
C     -1.727019   -0.908615    0.096498
C     -2.177898   -2.205881   -0.108946
C     -3.550751   -2.169852   -0.477817
C     -4.508608   -3.138721   -0.799154
N     -5.775827   -2.774734   -1.118349
C     -6.094574   -1.461168   -1.119960
C     -5.219798   -0.428076   -0.816910
C     -3.926270   -0.831336   -0.493152
N     -2.817761   -0.095584   -0.146077
C      0.656018   -1.287118    0.716266
C      1.918634   -0.813774    1.088126
C      2.176122    0.567467    1.246801
H      6.842021    2.816361    2.653129
H      6.696525    0.348703    2.454666
H      4.601731   -0.721549    1.819377
H      4.855482    4.204165    2.205618
H      2.453850    4.371169    1.567175
H     -0.919669    1.701498    0.483088
H     -1.585468   -3.105313   -0.006671
H     -4.294586   -4.200978   -0.809697
H     -7.126717   -1.245770   -1.385136
H     -5.527639    0.608810   -0.833384
H     -2.816181    0.911253   -0.080829
H      0.521778   -2.360458    0.610760
H      2.699418   -1.551080    1.251624
