46

Si    -2.814613   -2.561064   -1.394090
C     -1.059153   -2.765595   -1.970787
C     -0.228182   -1.903153   -1.347432
C      1.240049   -1.889913   -1.522484
C      1.987727   -1.052473   -0.765094
C      1.297522   -0.176921    0.113772
N      1.968694    0.709196    0.917869
C      1.042917    1.463009    1.578717
C      1.258532    2.616028    2.590162
S      2.713857    3.225895    3.195822
C      1.871589    4.391443    4.159166
C      0.496606    4.315719    4.009646
C      0.184493    3.288413    3.107915
C     -1.087327    2.866678    2.630816
C     -2.303474    3.404706    2.935285
O     -3.260939    2.744612    2.204265
C     -2.621644    1.788025    1.445505
C     -1.284007    1.819911    1.717565
C     -0.211332    1.046489    1.180005
C     -0.078070   -0.043865    0.314048
C     -0.914850   -0.973861   -0.382927
C     -2.230570   -1.214977   -0.239511
C      1.965241   -2.771717   -2.439654
C      2.584388   -3.984970   -2.054165
C      3.281990   -4.845201   -2.962339
C      3.429398   -4.583208   -4.342466
C      2.813173   -3.388113   -4.716297
C      2.821071   -2.926283   -6.009038
S      1.978019   -1.433766   -6.141927
C      1.603729   -1.407546   -4.463220
C      2.107031   -2.510963   -3.813307
H     -3.709797   -2.040767   -2.455245
H     -3.317960   -3.749295   -0.663945
H     -0.793065   -3.530615   -2.683257
H      3.070377   -1.020672   -0.842449
H      2.971355    0.816665    0.990597
H      2.434550    5.074158    4.780803
H     -0.200217    4.965811    4.522090
H     -2.664715    4.202350    3.567690
H     -3.273128    1.240952    0.785860
H     -2.921049   -0.771050    0.449928
H      2.525109   -4.290030   -1.008525
H      3.722731   -5.758710   -2.561088
H      3.960070   -5.248279   -5.010866
H      3.268817   -3.371237   -6.886859
H      1.034152   -0.581906   -4.058051
