37

C     -1.129228   -1.616761   -5.867402
C     -1.225603   -1.565789   -4.371087
C     -1.739492   -2.653744   -3.652215
C     -1.856497   -2.593793   -2.260863
C     -1.468947   -1.441602   -1.578930
O     -1.615129   -1.439399   -0.216161
C     -1.199745   -0.321985    0.467783
C     -0.672486    0.795071   -0.055279
C     -0.300510    1.961913    0.722645
C      0.445012    2.051214    1.835851
C      1.136338    0.934286    2.540083
O      1.312264   -0.165244    2.026021
C      1.711182    1.208913    3.883010
C      2.948639    0.616939    4.179488
C      3.552817    0.822374    5.420700
C      2.920715    1.612259    6.378835
C      1.679933    2.189636    6.103263
C      1.073215    1.982591    4.861116
O     -0.161264    2.522776    4.629044
C     -0.580276    0.860421   -1.543263
O     -0.211464    1.871741   -2.132331
C     -0.969832   -0.351959   -2.284864
C     -0.852767   -0.405826   -3.678809
H     -1.006378   -2.647004   -6.217767
H     -0.262200   -1.048368   -6.220247
H     -2.035437   -1.197610   -6.315385
H     -2.050965   -3.557550   -4.172192
H     -2.250763   -3.444574   -1.711455
H     -1.350939   -0.473711    1.529562
H     -0.673813    2.895972    0.300009
H      0.605014    3.038255    2.259887
H      3.445417   -0.007244    3.438213
H      4.513894    0.362520    5.638513
H      3.392193    1.770688    7.346120
H      1.201010    2.791178    6.870616
H     -0.495071    2.924213    5.449500
H     -0.468291    0.456942   -4.220032
