45

C      3.386788    3.821519    1.393395
C      4.547390    2.889420    1.323366
C      4.101953    1.634759    1.163733
C      4.843593    0.425830    1.101620
C      6.258728    0.279911    1.075515
C      6.623433   -1.039707    0.955745
S      5.264893   -2.064071    0.855681
C      4.152698   -0.778168    1.051579
C      2.671318   -0.886381    1.045892
C      1.903469   -2.085260    1.085805
C      2.360924   -3.357107    1.352000
S      1.125134   -4.549139    1.292646
C     -0.073488   -3.376494    0.962133
C      0.459950   -2.110301    0.902874
C     -0.302050   -0.965568    0.677638
C     -1.745103   -0.909157    0.428570
C     -2.200001    0.338990    0.212304
Si    -0.844714    1.618172    0.344992
C      0.445681    0.260083    0.713058
C      1.865043    0.331980    0.936395
C      2.633782    1.614748    1.084247
C      2.220886    2.886467    1.253096
C     -3.570348    0.648163   -0.004135
S     -4.047222    1.678512   -1.321479
C     -5.714325    1.555047   -0.955237
C     -5.927225    0.750619    0.131162
N     -7.169835    0.490619    0.624564
C     -7.093842   -0.333466    1.705090
C     -5.909128   -0.848894    2.244016
N     -4.658287   -0.603292    1.767955
C     -4.699747    0.223065    0.679176
H      3.409273    4.550004    0.577801
H      3.357148    4.343876    2.354115
H      5.576972    3.196059    1.420690
H      6.975275    1.089944    1.122488
H      7.622604   -1.449131    0.899926
H      3.346863   -3.709118    1.603276
H     -1.100556   -3.692883    0.848651
H     -2.368920   -1.792704    0.431983
H     -1.043750    2.532443    1.500665
H     -0.562228    2.309165   -0.940029
H      1.218328    3.265082    1.323076
H     -6.453531    2.071400   -1.550078
H     -8.050734   -0.585318    2.153932
H     -5.944997   -1.501028    3.112373
