109

C     -8.783122   -2.411234   -1.136329
C     -8.089213   -1.964166   -2.257969
C     -6.706988   -1.762617   -2.193959
C     -5.991984   -2.001675   -1.007693
C     -4.541410   -1.753473   -0.918389
C     -3.673927   -2.692543   -0.341542
C     -2.308092   -2.418722   -0.175976
C     -1.751181   -1.193446   -0.579654
C     -0.337930   -0.858389   -0.315287
N      0.089219    0.344159   -0.692166
C      1.321562    0.679731   -0.306933
N      1.788770    1.978378   -0.694217
C      2.766181    2.736439   -0.041939
C      3.787886    2.387611    0.858853
C      4.517130    3.408773    1.473001
C      4.239926    4.744374    1.210519
C      3.240170    5.091659    0.298388
C      2.499617    4.080181   -0.349758
C      1.491601    4.099159   -1.354833
C      0.812352    5.100747   -2.081062
C     -0.101390    4.790258   -3.124419
C     -0.302038    3.471085   -3.588633
C     -1.114360    2.865695   -4.587193
C     -2.081868    3.380453   -5.479159
C     -2.697612    2.535722   -6.404688
C     -2.342744    1.195822   -6.471693
C     -1.381678    0.662468   -5.607379
C     -0.794138    1.500677   -4.635492
N      0.216258    1.277333   -3.687457
C      1.021997    0.103403   -3.591709
C      2.406794    0.227190   -3.410798
C      3.197636   -0.913157   -3.264550
C      2.614903   -2.178490   -3.304789
C      1.241038   -2.306751   -3.504491
C      0.442905   -1.170686   -3.653925
C      0.395220    2.448853   -2.971826
C      1.236048    2.779632   -1.676144
N      2.086923   -0.082597    0.473457
C      1.596488   -1.297882    0.740638
N      2.428358   -2.191367    1.482478
C      2.573609   -3.558601    1.214329
C      1.846716   -4.436094    0.383211
C      2.307736   -5.745913    0.224928
C      3.464478   -6.178327    0.861038
C      4.194433   -5.302956    1.670746
C      3.751546   -3.975575    1.850478
C      4.261526   -2.868994    2.588201
C      5.398906   -2.642387    3.391474
C      5.617911   -1.409893    4.061139
C      4.660172   -0.372987    4.072039
C      4.603181    0.934586    4.628538
C      5.529863    1.711371    5.355005
C      5.173893    2.985666    5.801144
C      3.899886    3.479843    5.562459
C      2.957612    2.722985    4.861040
C      3.327705    1.455727    4.364533
N      2.608677    0.467977    3.676236
C      1.198544    0.461984    3.480855
C      0.468434   -0.701272    3.763448
C     -0.914258   -0.719973    3.574479
C     -1.570753    0.414682    3.101064
C     -0.847887    1.574398    2.822253
C      0.534733    1.603437    3.016895
C      3.479330   -0.567012    3.380498
C      3.338242   -1.847029    2.463336
N      0.405360   -1.746755    0.337853
C     -2.618494   -0.276059   -1.201887
C     -3.982900   -0.548503   -1.367043
C     -6.714917   -2.455557    0.109560
C     -8.096513   -2.658324    0.048147
H     -9.857654   -2.562034   -1.183369
H     -8.624034   -1.765153   -3.182958
H     -6.188089   -1.415187   -3.086117
H     -4.058384   -3.650229    0.004423
H     -1.684308   -3.171386    0.304575
H      4.015112    1.352332    1.093673
H      5.299047    3.151147    2.185349
H      4.810916    5.523609    1.710058
H      3.049331    6.137442    0.077310
H      0.980414    6.147310   -1.834096
H     -0.625438    5.609404   -3.616300
H     -2.344405    4.433497   -5.449190
H     -3.439359    2.936657   -7.089879
H     -2.804528    0.552384   -7.217439
H     -1.092990   -0.376538   -5.719270
H      2.891619    1.202124   -3.402781
H      4.269819   -0.814299   -3.118803
H      3.231948   -3.064611   -3.182462
H      0.786004   -3.294148   -3.524384
H     -0.632818   -1.299372   -3.741961
H      0.954347   -4.114815   -0.145034
H      1.756633   -6.433167   -0.414799
H      3.809661   -7.200985    0.725526
H      5.101724   -5.647797    2.158342
H      6.150476   -3.424976    3.484904
H      6.543778   -1.281857    4.620499
H      6.522330    1.321572    5.564787
H      5.894740    3.584685    6.350770
H      3.624232    4.464784    5.933043
H      1.959679    3.123076    4.720793
H      0.955219   -1.590348    4.157618
H     -1.480532   -1.621679    3.795406
H     -2.645519    0.393194    2.940252
H     -1.361051    2.453734    2.438842
H      1.079293    2.503660    2.745505
H     -2.243621    0.690212   -1.541530
H     -4.612801    0.217749   -1.816717
H     -6.205253   -2.633420    1.054826
H     -8.633440   -3.000124    0.930186
