44

C     -2.967922    2.361995    5.144818
C     -3.175465    1.006661    4.987856
C     -2.607680    0.484376    3.770537
C     -1.994207    1.512606    3.085144
S     -2.097755    3.026674    3.832062
C     -1.270519    1.230204    1.748087
N     -0.657362    2.147702    0.945748
C     -0.053629    1.505883   -0.110658
C      0.704631    2.032982   -1.188044
C      1.309983    1.186735   -2.146694
C      2.089271    1.679792   -3.275574
C      3.219975    2.484632   -3.093599
C      3.938398    2.945998   -4.195214
C      3.501520    2.590624   -5.459876
N      2.416496    1.822747   -5.688431
C      1.739378    1.391370   -4.595138
C      1.114335   -0.167269   -1.845384
C      1.689524   -1.231752   -2.508710
N      1.332108   -2.390035   -1.848220
C      0.547937   -2.090028   -0.753622
C      0.371049   -0.737876   -0.785870
C     -0.313224    0.153426    0.105392
C     -1.180477   -0.043705    1.208371
C     -1.934601   -1.059884    1.881572
C     -2.118553   -2.326997    1.296062
C     -2.817888   -3.344090    1.951128
C     -3.376148   -3.116192    3.202501
C     -3.275738   -1.856446    3.792060
C     -2.588717   -0.805574    3.147839
H     -3.290794    2.991765    5.962412
H     -3.719218    0.417018    5.714611
H     -0.625656    3.141911    1.121734
H      0.821208    3.111397   -1.279742
H      3.552582    2.744945   -2.091525
H      4.819048    3.565118   -4.067777
H      4.028534    2.924500   -6.348974
H      0.865352    0.783822   -4.819193
H      2.349338   -1.283511   -3.364822
H      1.646922   -3.318440   -2.098664
H      0.257056   -2.872351   -0.070458
H     -1.775150   -2.523987    0.288488
H     -2.938874   -4.311605    1.470485
H     -3.919028   -3.910388    3.708411
H     -3.759807   -1.705980    4.753165
