27

C     -3.052485   -0.038989    0.217557
C     -2.097711   -0.437452   -0.837390
N     -2.144697   -0.117827   -2.118134
N     -1.056452   -0.690743   -2.744700
C     -0.381760   -1.349413   -1.832014
S      1.104510   -2.200849   -2.062829
C      2.229326   -0.781243   -2.244774
C      2.395929   -0.020073   -0.950801
C      1.695558    1.176529   -0.735441
C      1.812283    1.856655    0.477204
C      2.630667    1.350887    1.485185
C      3.334527    0.165360    1.282195
C      3.218394   -0.518103    0.071015
N     -0.987410   -1.211025   -0.609853
N     -0.533952   -1.697936    0.662085
H     -3.868264    0.553846   -0.207859
H     -2.556571    0.568721    0.980758
H     -3.490816   -0.918585    0.699009
H      3.206723   -1.155765   -2.569732
H      1.871731   -0.121952   -3.044134
H      1.045335    1.582164   -1.510088
H      1.265559    2.783520    0.633523
H      2.724644    1.884899    2.427530
H      3.977555   -0.225105    2.067220
H      3.772185   -1.444237   -0.071211
H      0.255442   -1.130273    0.978523
H     -0.149222   -2.636666    0.554969
