40

C      0.231865   -3.926888   -2.406708
N      0.633171   -3.763789   -0.987010
C      0.947024   -2.410048   -0.615301
C      2.075308   -1.738908   -1.089553
C      2.307582   -0.412543   -0.714105
C      1.399923    0.258146    0.115969
C      1.692298    1.669829    0.490853
O      2.845436    2.084152    0.483660
N      0.607179    2.457577    0.802910
C      0.782468    3.866551    1.069134
C     -0.506351    4.476973    1.548923
C     -0.892945    4.349766    2.890902
C     -2.101493    4.889221    3.333532
C     -2.937628    5.554464    2.438795
C     -2.568022    5.678720    1.100625
C     -1.359669    5.139787    0.655748
C      0.265230   -0.416138    0.585093
C      0.037548   -1.743893    0.210376
S      1.724949   -4.973415   -0.458798
C      1.642199   -4.803165    1.313604
O      1.143186   -6.256866   -0.798396
O      3.061236   -4.636918   -0.902814
H     -0.281467   -4.882715   -2.547366
H     -0.474123   -3.140624   -2.695717
H      1.099380   -3.876849   -3.072154
H      2.786675   -2.234899   -1.745743
H      3.198807    0.098599   -1.075358
H     -0.320768    2.150264    0.547405
H      1.126546    4.350138    0.147167
H      1.575439    3.999872    1.814587
H     -0.250080    3.828320    3.597427
H     -2.390264    4.791006    4.376828
H     -3.877662    5.976517    2.784662
H     -3.221049    6.197484    0.403321
H     -1.086162    5.243485   -0.392180
H     -0.437800    0.065669    1.258948
H     -0.848955   -2.260400    0.570771
H      0.602152   -4.898175    1.630588
H      2.235557   -5.608659    1.752482
H      2.061740   -3.840492    1.608436
