42

C      0.709618    4.695886    1.886743
C      0.040257    3.370463    1.676816
C      0.103753    2.380176    2.659273
C     -0.490475    1.131072    2.452877
C     -1.145875    0.847092    1.253011
O     -1.751823   -0.342117    0.945361
C     -1.627354   -1.424618    1.849407
C     -0.242644   -2.084152    1.991805
O      0.295580   -2.131191    3.102343
N      0.337340   -2.656318    0.858210
C      1.656903   -3.269133    0.995083
C      2.787142   -2.374565    0.494739
C      2.529031   -1.664559   -0.833342
C      1.910028   -2.529050   -1.930585
C      0.544716   -3.161801   -1.624289
C     -0.238080   -2.507542   -0.484816
C     -1.212275    1.835304    0.253815
C     -1.904665    1.564222   -1.053706
C     -0.609353    3.085265    0.471474
H      0.718395    4.965962    2.947982
H      1.741114    4.655791    1.523510
H      0.176940    5.490921    1.354397
H      0.618402    2.570420    3.598834
H     -0.414267    0.406674    3.257474
H     -1.998755   -1.139989    2.842184
H     -2.315157   -2.208628    1.510011
H      1.852748   -3.518648    2.044374
H      1.654810   -4.231533    0.473560
H      3.697259   -2.981191    0.412230
H      2.998396   -1.607188    1.250367
H      1.893388   -0.787595   -0.657856
H      3.481758   -1.261331   -1.199295
H      2.612545   -3.322540   -2.213997
H      1.799347   -1.898481   -2.822447
H      0.671868   -4.232864   -1.427052
H     -0.062881   -3.111971   -2.537171
H     -0.350453   -1.441224   -0.699162
H     -1.245041   -2.938680   -0.452618
H     -1.934287    2.457819   -1.686092
H     -1.375560    0.781067   -1.605885
H     -2.939610    1.252077   -0.879936
H     -0.648273    3.844944   -0.306958
