43

C      0.551750    0.693995    2.941874
N      1.209830    1.488508    1.937125
C      0.968522    2.787335    1.585408
S     -0.290146    3.768972    2.242434
C     -1.485475    3.702477    0.865016
C     -1.903412    2.252252    0.605417
O     -2.628893    1.725784    1.456804
N     -1.424050    1.602583   -0.552976
C     -0.760045    2.376110   -1.616420
C      0.005500    1.555232   -2.636038
C     -0.922866    0.528937   -3.238123
C     -1.497177   -0.315710   -2.136096
C     -1.826241   -1.650956   -2.440878
C     -2.349826   -2.492862   -1.468617
C     -2.546951   -2.005777   -0.186046
C     -2.238329   -0.673786    0.118611
C     -1.730669    0.212249   -0.845612
N      1.772166    3.150002    0.614488
N      2.547056    2.061914    0.293069
C      2.200615    1.062157    1.082886
C      2.772168   -0.247421    1.019358
C      3.758865   -0.702835    0.158609
C      3.992813   -2.064638    0.463645
C      3.139004   -2.370974    1.493599
O      2.401544   -1.285840    1.837483
H      0.029623   -0.129670    2.448697
H     -0.168663    1.288855    3.504789
H      1.306650    0.314595    3.635571
H     -1.106774    4.241353   -0.000995
H     -2.385945    4.244889    1.175985
H     -1.535944    2.977469   -2.106942
H     -0.042841    3.070486   -1.178695
H      0.408534    2.207638   -3.418505
H      0.858415    1.061304   -2.152602
H     -1.740388    1.010149   -3.787906
H     -0.358530   -0.088343   -3.946903
H     -1.664573   -2.040052   -3.444058
H     -2.595081   -3.523582   -1.708255
H     -2.944214   -2.656085    0.589244
H     -2.400401   -0.377663    1.148492
H      4.245855   -0.106588   -0.601879
H      4.694813   -2.736774   -0.009279
H      2.944315   -3.269217    2.063103
