45

Si     1.646659   -3.599963   -2.675407
C      2.120570   -3.673648   -0.829285
C      1.893019   -2.492801   -0.215370
C      1.356401   -1.462233   -1.058039
C      1.131592   -1.800573   -2.424733
C      0.593281   -0.805303   -3.189395
S      0.361117    0.593159   -2.194958
C      0.992049   -0.167634   -0.778235
C      1.079504    0.544650    0.459181
S     -0.297255    1.079359    1.339402
C      0.647170    1.772973    2.608910
C      0.049325    2.410625    3.741935
S      0.499560    2.067623    5.386170
C     -0.647265    3.188776    6.055799
C     -1.301981    3.761350    5.026369
C     -2.312120    4.716510    4.759612
C     -2.453216    4.786805    3.357288
N     -1.578059    3.918405    2.708090
C     -0.931533    3.343391    3.766919
C      1.954074    1.566795    2.303152
C      3.183962    1.915960    2.926248
C      4.300900    1.488644    2.200705
S      3.975612    0.638777    0.700052
C      2.231370    0.890239    1.111913
C      0.235037   -0.787840   -4.579076
S      1.287470   -1.406314   -5.828445
C      0.193336   -1.014207   -7.113211
C     -0.891109   -0.443661   -6.560243
O     -1.988900    0.010532   -7.222842
C     -2.733347    0.467415   -6.150681
C     -2.113462    0.294680   -4.906454
C     -0.876458   -0.314594   -5.192989
H      0.514845   -4.515389   -2.963969
H      2.846901   -3.780038   -3.528919
H      2.515967   -4.576404   -0.392222
H      2.095161   -2.329939    0.837533
H     -0.743707    3.334443    7.121823
H     -2.880791    5.296268    5.474591
H     -3.120070    5.397775    2.762217
H     -1.437113    3.732565    1.721821
H      3.277436    2.458385    3.859453
H      5.338765    1.634057    2.468707
H      0.393649   -1.211550   -8.156008
H     -3.689186    0.890981   -6.430643
H     -2.523297    0.577219   -3.947385
