42

C     -1.975258   -1.564234    1.373892
C     -1.133648   -1.055668    0.253393
N     -0.403915   -1.818808   -0.496911
N      0.196627   -0.982550   -1.430086
C      1.062924   -1.524738   -2.405621
N      1.278085   -2.858040   -2.398069
C      2.102125   -3.372351   -3.331201
C      2.324194   -4.855075   -3.310362
C      2.722582   -2.587404   -4.279906
C      2.454297   -1.236748   -4.227152
C      3.084134   -0.296474   -5.210606
N      1.635583   -0.700922   -3.301376
C     -0.135622    0.365920   -1.297184
O      0.203003    1.354336   -1.927720
C     -1.081294    0.399003   -0.119738
C     -0.614247    1.327690    1.000643
C      0.761408    0.973542    1.589183
C      1.252172    1.905012    2.714260
C      1.493171    3.333509    2.225421
C      0.316529    1.905877    3.924289
H     -1.614322   -1.157214    2.321211
H     -1.930956   -2.656525    1.415830
H     -3.011389   -1.251617    1.219751
H      1.774772   -5.321068   -2.486479
H      1.976349   -5.300226   -4.248086
H      3.388281   -5.077324   -3.178935
H      3.383465   -3.010132   -5.026374
H      2.847846   -0.602892   -6.234588
H      4.170591   -0.285132   -5.078915
H      2.711973    0.723013   -5.066976
H     -2.072936    0.696722   -0.478756
H     -1.366533    1.309788    1.796953
H     -0.587948    2.351313    0.609823
H      0.735876   -0.050250    1.982464
H      1.512818    0.975760    0.790840
H      2.219375    1.509660    3.051584
H      1.962233    3.932640    3.013683
H      0.560132    3.833116    1.942875
H      2.161863    3.343775    1.359067
H      0.766652    2.457298    4.757011
H     -0.642730    2.381584    3.697057
H      0.119856    0.884659    4.269513
