39

C     -2.054896    0.430620   -0.636927
C     -2.721130    0.198409   -2.023850
C     -1.897215   -0.495132   -2.855227
C     -0.717175   -0.750848   -2.130721
O      0.461575   -1.378036   -2.372362
C      1.165562   -1.248507   -1.207772
C      0.450315   -0.553909   -0.245708
C     -0.758085   -0.239622   -0.851419
C      1.044053   -0.333245    1.025827
C      0.501303    0.315774    2.072568
Si     1.674077    0.342914    3.522663
C      2.909141   -0.615642    2.486629
C      2.425931   -0.872245    1.251917
C      3.154742   -1.617937    0.173130
C      4.439305   -2.141110    0.325843
C      5.011537   -2.813027   -0.745617
N      4.406026   -2.998569   -1.939688
C      3.159805   -2.486685   -2.076621
C      2.499463   -1.800158   -1.070870
C     -4.073129    0.694732   -2.326097
C     -4.683994    0.492608   -3.569508
C     -5.968398    0.979569   -3.816542
C     -6.618811    1.663513   -2.806315
N     -6.077617    1.885674   -1.592845
C     -4.827936    1.398997   -1.385918
H     -2.626972   -0.050593    0.162168
H     -1.925185    1.498082   -0.434213
H     -2.062431   -0.811781   -3.871969
H     -0.471493    0.776625    2.124647
H      2.151573    1.709450    3.840649
H      1.173924   -0.448383    4.671685
H      3.864550   -0.888194    2.903011
H      4.998262   -2.039335    1.247651
H      6.010009   -3.235270   -0.667363
H      2.698652   -2.651220   -3.046407
H     -4.178033   -0.043878   -4.366924
H     -6.447231    0.826477   -4.777335
H     -7.619097    2.061381   -2.950405
H     -4.449177    1.610892   -0.390214
