43

C      0.272349   -0.544818   -1.196190
C     -1.099537   -1.010969   -0.763829
C     -1.448967   -2.060652   -1.524510
C     -0.397098   -2.352596   -2.464181
C      0.630366   -1.494341   -2.312506
C      1.871510   -1.491058   -3.098058
C      2.118159   -2.431514   -4.144334
C      3.299571   -2.490940   -4.951394
C      4.383432   -1.612341   -4.809397
C      4.165021   -0.685175   -3.793956
C      5.110418    0.265387   -3.496131
S      4.592663    1.272721   -2.214632
C      3.099935    0.428368   -2.064134
C      2.971447   -0.607615   -2.962016
C     -1.865429   -0.376074    0.315282
C     -1.368333    0.718883    1.024336
C     -2.119192    1.305990    2.049344
C     -3.372972    0.789975    2.361381
N     -3.879929   -0.270186    1.691138
C     -3.127643   -0.818163    0.701781
C     -4.249026    1.324952    3.417057
S     -3.785773    2.685348    4.394583
C     -5.238037    2.680236    5.311053
C     -6.057020    1.675181    4.891243
S     -7.691479    1.179195    5.464485
C     -7.577664   -0.064399    4.230013
C     -6.401484   -0.077154    3.472011
C     -5.485292    0.946577    3.847605
H      0.977705   -0.634838   -0.362992
H      0.220107    0.486983   -1.560199
H     -2.362375   -2.634080   -1.482563
H     -0.481190   -3.164124   -3.170607
H      1.361044   -3.181623   -4.372984
H      3.355643   -3.264188   -5.718345
H      5.269640   -1.670213   -5.427428
H      6.075788    0.428464   -3.955520
H      2.429710    0.783928   -1.301963
H     -0.392388    1.140851    0.800440
H     -1.701763    2.155193    2.579049
H     -3.607994   -1.662774    0.216267
H     -5.432652    3.392892    6.100544
H     -8.416071   -0.740090    4.130355
H     -6.228190   -0.801519    2.685097
