30

C     -1.326062    4.498874    3.932778
C     -0.089294    3.696696    3.573649
O     -0.076099    3.407987    2.168232
C     -0.746986    2.286537    1.788437
O     -1.349142    1.544488    2.552746
N     -0.643888    2.152536    0.417659
N     -1.533516    1.379040   -0.280725
C     -1.396486    0.083188   -0.206136
C     -0.292558   -0.645916    0.526620
C     -2.428230   -0.753728   -0.872308
C     -2.284483   -1.382682   -2.046695
C     -1.107166   -1.372104   -2.845541
C     -0.906318   -1.987541   -4.077983
C      0.414783   -1.708382   -4.500846
C      0.965096   -0.936446   -3.511788
O      0.067690   -0.731852   -2.519434
H     -1.381181    5.410948    3.329426
H     -1.314948    4.775668    4.990761
H     -2.237766    3.927938    3.730652
H     -0.016255    2.780717    4.171217
H      0.806690    4.289286    3.785918
H     -0.433139    3.039470   -0.025974
H      0.672141   -0.170194    0.330368
H     -0.230748   -1.688370    0.200565
H     -0.492319   -0.642739    1.600238
H     -3.375859   -0.785847   -0.344634
H     -3.135870   -1.937704   -2.431670
H     -1.643062   -2.573151   -4.610875
H      0.901116   -2.027887   -5.411345
H      1.932196   -0.475200   -3.369230
