41

Si    -4.195249   -1.919374    0.742799
C     -2.672069   -1.043448    1.327415
C     -1.910843   -0.617161    0.297855
C     -0.655486    0.096518    0.462205
C     -0.013418    0.476563    1.730629
C      1.151249    1.143082    1.624282
Si     1.613084    1.375442   -0.159550
C      0.027190    0.469096   -0.652233
C     -0.426269    0.197750   -2.041033
C      0.337857    0.613609   -3.133573
C     -0.076475    0.371744   -4.439714
C     -1.285859   -0.300925   -4.701940
C     -1.859414   -0.627635   -5.978912
C     -3.053479   -1.287345   -5.871877
S     -3.491249   -1.517134   -4.252960
C     -2.074695   -0.732281   -3.618253
C     -1.662493   -0.497003   -2.265873
C     -2.445291   -0.932640   -1.061138
C     -3.616630   -1.604644   -1.003793
C      1.934830    1.591618    2.708955
S      2.483967    0.483180    3.932748
C      3.331291    1.693851    4.813116
C      3.195674    2.905923    4.203745
S      3.837253    4.527376    4.653049
C      2.993804    5.089030    3.217118
C      2.303384    4.116872    2.483547
C      2.420485    2.816462    3.047949
H     -5.440327   -1.183571    1.070311
H     -4.196995   -3.360862    1.090382
H     -2.479528   -0.927471    2.381164
H     -0.473645    0.226903    2.678569
H      1.592818    2.798438   -0.591688
H      2.830833    0.628842   -0.568755
H      1.280668    1.138635   -3.014306
H      0.543924    0.709509   -5.267163
H     -1.403356   -0.381722   -6.930078
H     -3.688098   -1.643868   -6.671477
H     -4.241882   -1.973577   -1.792555
H      3.877513    1.476240    5.720401
H      3.055378    6.145313    2.992567
H      1.741637    4.362409    1.590698
