27

C     -0.956308   -0.982099   -2.997190
C     -1.423457   -0.882105   -1.685963
C     -0.661045   -0.248729   -0.692982
C      0.593824    0.296953   -1.033570
C      1.021794    0.164314   -2.351250
C      0.287475   -0.458253   -3.359147
O      2.251640    0.718648   -2.514281
C      2.630352    1.213050   -1.306224
C      3.846321    1.849908   -1.058515
C      4.072632    2.296149    0.245338
C      3.112843    2.112912    1.241665
C      1.892292    1.471842    0.959393
C      0.895885    1.316295    1.984153
C     -0.356303    1.936109    2.165509
N     -0.975457    1.501562    3.266633
O     -0.106037    0.581630    3.835393
C      1.008903    0.480987    3.067111
C      1.640595    0.998138   -0.348650
H     -1.566278   -1.479036   -3.748738
H     -2.392629   -1.303901   -1.426417
H     -1.044350   -0.195775    0.321638
H      0.669718   -0.531842   -4.370098
H      4.577775    1.986545   -1.846654
H      5.008056    2.798493    0.483857
H      3.315427    2.485330    2.244683
H     -0.844444    2.676911    1.547595
H      1.757711   -0.212871    3.419590
