45

C      3.274428    4.895031    0.825620
C      4.345694    4.868667   -0.229876
C      4.143444    3.816629   -1.033413
C      4.890278    3.372212   -2.183413
C      4.460192    2.266985   -2.824809
C      3.275137    1.520198   -2.385302
C      2.532630    1.888715   -1.312030
C      1.368591    1.069131   -0.943119
C      0.161454    1.196410   -1.634921
C     -0.955199    0.421760   -1.282414
C     -0.930215   -0.512898   -0.227847
C      0.325225   -0.614786    0.463253
C      1.454908    0.162582    0.112935
C      0.264531   -1.565000    1.499537
C      1.261368   -1.929366    2.366902
O      0.795646   -2.884662    3.222621
C     -0.509208   -3.127778    2.893682
C     -0.884189   -2.337873    1.836077
C     -2.110608   -2.247460    1.170030
C     -3.286992   -2.962641    1.428820
N     -3.618805   -3.926641    2.354382
C     -4.921337   -4.320281    2.195615
C     -5.451109   -3.603441    1.150066
C     -4.430683   -2.743858    0.657838
C     -4.374203   -1.802584   -0.369272
N     -3.234744   -1.109478   -0.620623
C     -2.109331   -1.291098    0.100403
C      2.962767    3.079706   -0.592621
C      2.443029    3.689422    0.483397
H      3.706245    4.803430    1.826557
H      2.681733    5.812265    0.761237
H      5.140968    5.592538   -0.313835
H      5.764658    3.922312   -2.508692
H      4.987937    1.893322   -3.696854
H      3.019784    0.639400   -2.969206
H      0.073990    1.905567   -2.455905
H     -1.872452    0.561502   -1.855401
H      2.388888    0.060648    0.658810
H      2.291611   -1.637729    2.514772
H     -0.983958   -3.873703    3.510630
H     -2.998428   -4.299522    3.056471
H     -5.355800   -5.074099    2.838909
H     -6.463684   -3.685968    0.776552
H     -5.220220   -1.578403   -1.009283
H      1.563933    3.379786    1.027488
