36

C      2.875048   -6.601742    0.126327
O      2.310781   -5.301835    0.303721
C      2.085189   -4.635947   -0.855840
O      2.322487   -5.054053   -1.978438
C      1.496950   -3.295244   -0.588658
C      1.192794   -2.475384   -1.681176
C      0.638813   -1.206298   -1.480243
C      0.377681   -0.736807   -0.186950
N     -0.175044    0.555141   -0.070123
C     -0.588893    1.187780    1.088518
O     -0.617090    0.715765    2.217853
C     -1.085124    2.577272    0.891494
C     -2.202782    2.994880    1.622149
C     -2.697151    4.285763    1.453441
C     -2.065970    5.158640    0.566097
C     -0.932011    4.759109   -0.148336
O     -0.407054    5.721529   -0.965938
C      0.811060    5.414189   -1.632328
C     -0.438585    3.464052    0.015803
C      0.685764   -1.555193    0.901353
C      1.240650   -2.827127    0.704538
H      3.014451   -7.048162    1.114765
H      2.196368   -7.239167   -0.449079
H      3.851503   -6.532304   -0.363281
H      1.384882   -2.820922   -2.695535
H      0.413648   -0.597081   -2.351966
H     -0.352458    1.037540   -0.941771
H     -2.688122    2.313973    2.318690
H     -3.568539    4.614638    2.013989
H     -2.453150    6.167547    0.439244
H      1.608851    5.191667   -0.915960
H      1.112325    6.297714   -2.203258
H      0.674217    4.590353   -2.340428
H      0.455778    3.137832   -0.502700
H      0.510288   -1.233486    1.923801
H      1.466045   -3.436286    1.576751
