35

O     -1.771851   -3.560740   -0.520109
S     -0.766500   -2.678512   -1.083487
O      0.179562   -3.196381   -2.044220
N      0.056752   -2.088477    0.254171
C      1.412191   -1.582569    0.050723
C      1.986115   -1.079911    1.355040
C      2.905892   -1.851483    2.078982
C      3.414810   -1.388480    3.293620
C      3.004679   -0.155740    3.798775
C      2.082932    0.614957    3.092563
C      1.573007    0.154418    1.878009
C     -1.617897   -1.254854   -1.705630
C     -2.967310   -1.092687   -1.338105
C     -3.698687   -0.019419   -1.826527
C     -3.085715    0.883924   -2.685210
C     -1.740082    0.719694   -3.056014
C     -1.137410    1.639626   -3.925281
C      0.189901    1.483670   -4.295469
C      0.875288    0.409657   -3.774385
N      0.326838   -0.488298   -2.927436
C     -0.971195   -0.364604   -2.567322
H     -0.093052   -2.670310    1.076688
H      2.054114   -2.379536   -0.341101
H      1.423897   -0.759032   -0.666313
H      3.232545   -2.818024    1.701057
H      4.130531   -1.990891    3.847223
H      3.401108    0.202808    4.745103
H      1.758502    1.573454    3.489068
H      0.846687    0.758897    1.338431
H     -3.452300   -1.804193   -0.672066
H     -4.740936    0.108715   -1.544827
H     -3.666455    1.721094   -3.068157
H     -1.700672    2.481137   -4.322059
H      0.672964    2.179607   -4.971365
H      1.916465    0.229478   -4.027093
