36

Si    -1.390517   -0.234495   -0.938906
C     -1.615662   -1.827847   -1.906806
C     -1.455452   -2.922325   -1.137063
C     -1.137901   -2.617914    0.266971
C     -0.921748   -3.549437    1.257880
N     -0.630755   -3.212729    2.534413
C     -0.548800   -1.905892    2.858761
C     -0.249324   -1.590395    4.177803
C     -0.144117   -0.254967    4.607512
C      0.140426    0.367548    5.853435
C      0.104032    1.729275    5.657993
N     -0.192228    1.955321    4.339808
C     -0.347712    0.758268    3.677418
C     -0.651063    0.494353    2.337469
C     -0.751921   -0.858458    1.926057
C     -1.050704   -1.250925    0.608681
C     -1.929703   -1.847552   -3.286169
S     -3.188996   -2.905363   -3.920127
C     -3.000060   -2.367459   -5.552994
C     -2.025460   -1.443655   -5.564457
O     -1.564086   -0.775761   -6.656118
C     -0.588357   -0.001049   -6.057891
C     -0.472088   -0.192249   -4.675026
C     -1.445929   -1.158329   -4.352459
H     -2.636848    0.565349   -0.823025
H     -0.198820    0.542164   -1.372606
H     -1.536462   -3.946711   -1.478241
H     -0.973910   -4.616000    1.063618
H     -0.094430   -2.397298    4.888994
H      0.348761   -0.130784    6.791338
H      0.262332    2.553123    6.340966
H     -0.284494    2.866577    3.912324
H     -0.802488    1.316911    1.647503
H     -3.584281   -2.740824   -6.381036
H     -0.053014    0.637983   -6.748236
H      0.234396    0.306286   -4.027317
