40

Si     2.132100   -0.025265   -0.606157
C      3.126362    1.625490   -0.566083
C      2.481167    2.566926    0.159732
C      1.249332    2.081824    0.688365
S      0.145032    2.939917    1.643268
C     -0.944955    1.569052    1.787507
C     -0.383629    0.505869    1.068304
C      0.825850    0.790170    0.456043
C     -1.109440   -0.727088    1.063458
C     -0.811133   -1.924548    0.479779
N     -1.854219   -2.760286    0.818417
C     -2.773872   -2.083085    1.597128
C     -2.323861   -0.788522    1.766946
C     -2.962665    0.227190    2.509548
C     -4.206124    0.068361    3.200150
C     -4.801424    1.100013    3.935439
C     -4.105976    2.329232    3.965101
N     -4.522854    3.423568    4.623526
S     -3.380476    4.592216    4.362413
N     -2.310705    3.769705    3.407960
C     -2.785309    2.521355    3.236465
C     -2.194992    1.451752    2.490504
C      4.415430    1.757157   -1.234327
C      5.551859    2.137640   -0.514698
C      6.778041    2.255650   -1.166225
C      6.830443    1.990535   -2.526426
N      5.758310    1.627769   -3.260735
C      4.579126    1.527408   -2.600514
H      2.873449   -1.121037    0.073193
H      1.691547   -0.338603   -1.987026
H      2.839685    3.573957    0.333003
H      0.005577   -2.289956   -0.124034
H     -1.931663   -3.732221    0.544990
H     -3.653366   -2.602435    1.952506
H     -4.722978   -0.890313    3.163521
H     -5.741772    0.970208    4.457620
H      5.492806    2.334435    0.553837
H      7.670757    2.544447   -0.623577
H      7.764425    2.067979   -3.075901
H      3.739946    1.258093   -3.236244
