36

C      1.264576    4.003994   -2.977649
C      1.861166    4.002634   -4.356031
C      2.110646    2.743519   -4.738844
C      1.717269    1.837506   -3.690482
C      1.220915    2.529043   -2.649889
C      0.719118    2.003353   -1.409498
C      0.228723    2.728870   -0.387237
C     -0.157195    1.796258    0.647426
C      0.094621    0.466044    0.269073
C      0.692075    0.506963   -1.117871
C     -0.183462   -0.653925    1.083096
C      0.093170   -1.960815    0.643746
C     -0.210770   -3.014220    1.507250
O     -0.006172   -4.333545    1.236219
C     -0.429856   -5.031387    2.322025
C     -0.905428   -4.177738    3.290505
C     -0.767149   -2.863950    2.770004
C     -1.051567   -1.568768    3.229165
C     -0.758812   -0.469180    2.384434
C     -1.033072    0.886130    2.810881
N     -1.566553    1.274031    3.984410
S     -1.658848    2.931285    3.944108
N     -1.029436    3.248079    2.441027
C     -0.718640    2.057281    1.905001
H      0.262605    4.444840   -2.991695
H      1.905137    4.554167   -2.280885
H      2.054772    4.889571   -4.939866
H      2.538692    2.434382   -5.680402
H      1.822973    0.766226   -3.769878
H      0.123025    3.798995   -0.306881
H      0.049936   -0.021665   -1.829853
H      1.703552    0.087910   -1.114287
H      0.527123   -2.172087   -0.326773
H     -0.329336   -6.105719    2.253976
H     -1.303008   -4.465471    4.253261
H     -1.487415   -1.416235    4.213075
