49

Si    -0.988188   -3.206017    3.201319
C     -1.785219   -3.232026    1.517863
C     -1.345778   -2.217658    0.742995
C     -1.653136   -2.026714   -0.672266
C     -0.892362   -1.122424   -1.329577
C      0.140161   -0.256795   -0.709003
C      0.236079   -0.189924    0.652221
C      0.999481    0.942158    1.255247
C      0.679149    1.500378    2.513432
C     -0.417680    1.288134    3.315621
O     -0.340365    2.050869    4.447035
C      0.788301    2.810855    4.347336
C      1.416544    2.535803    3.162430
C      2.530928    3.150760    2.625837
C      3.328072    4.211933    3.230356
C      4.282126    4.669435    2.404287
Si     4.275427    3.806056    0.744917
C      2.813679    2.704945    1.285707
C      2.059742    1.676093    0.589917
C      2.156957    1.371315   -0.872565
C      3.082558    1.806392   -1.754632
Si     2.702781    1.299313   -3.512111
C      1.225339    0.402499   -2.850148
C      1.103391    0.522652   -1.508768
C     -0.370745   -1.311235    1.403485
C     -0.022922   -1.712667    2.646116
C     -2.666457   -2.700823   -1.434873
C     -3.931713   -3.138008   -1.048771
C     -4.556408   -3.737386   -2.167564
C     -3.655942   -3.635483   -3.194747
O     -2.529036   -3.013205   -2.776093
H     -0.128307   -4.389297    3.441404
H     -1.959393   -2.886249    4.274798
H     -2.440404   -4.040348    1.237151
H     -1.082066   -0.946921   -2.385021
H     -1.305627    0.676315    3.247117
H      0.962528    3.494061    5.166087
H      3.155608    4.577702    4.232736
H      4.994868    5.449896    2.622424
H      5.520009    3.028706    0.520267
H      3.918489    4.736387   -0.355654
H      3.959815    2.402561   -1.609750
H      3.733709    0.390675   -4.067833
H      2.344748    2.458857   -4.363479
H      0.633996   -0.201472   -3.518320
H      0.728402   -1.285059    3.290906
H     -4.356279   -3.020271   -0.061262
H     -5.540851   -4.179972   -2.218248
H     -3.665214   -3.936091   -4.232985
