38

C      0.578254   -3.426935   -0.986950
C      1.086363   -2.232446   -0.201720
C      0.025592   -1.172081   -0.086877
N     -0.252527   -0.388258   -1.082670
C     -1.268155    0.558371   -0.555350
C     -0.748250    1.984443   -0.384586
C     -0.973941    2.721919    0.794235
C     -0.523471    4.038680    0.929288
C      0.136585    4.661631   -0.124450
C      0.338101    3.970393   -1.315787
C     -0.093914    2.644143   -1.440859
O      0.030228    2.019757   -2.656737
C      1.397970    1.726878   -2.942225
N     -1.843762   -0.048365    0.686199
O     -2.949196   -0.911868    0.241048
C     -0.765186   -0.945024    1.185777
C     -1.281082   -2.233775    1.837559
C      0.127234   -0.203000    2.192883
H     -0.279444   -3.892850   -0.492629
H      0.260908   -3.132203   -1.992758
H      1.365784   -4.180424   -1.084893
H      1.952036   -1.796517   -0.712935
H      1.415813   -2.541993    0.794069
H     -2.068492    0.648095   -1.303714
H     -1.516752    2.276801    1.625976
H     -0.706601    4.579987    1.853976
H      0.470009    5.691039   -0.027902
H      0.807394    4.474328   -2.155513
H      1.917451    2.622763   -3.297196
H      1.918805    1.304149   -2.075176
H      1.420236    0.984031   -3.745244
H     -2.725319   -1.182682   -0.671996
H     -1.980223   -2.011195    2.651695
H     -1.787940   -2.888075    1.119970
H     -0.459993   -2.821740    2.263376
H      0.690727    0.616132    1.734870
H      0.875494   -0.877983    2.625403
H     -0.464433    0.204881    3.020183
