28

C      2.092343   -1.275112    0.508115
C      3.362802   -1.651982    1.165178
C      4.427906   -0.767121    1.367618
C      5.574721   -1.229716    1.996252
N      5.735200   -2.494727    2.432484
C      4.703733   -3.338379    2.232603
C      3.520191   -2.969733    1.615388
N      1.092320   -2.124022    0.323325
C      0.072071   -1.479503   -0.303546
S     -1.494151   -1.988315   -0.831170
C     -1.771526   -0.370518   -1.420152
C     -3.041984    0.006347   -2.077219
C     -3.199365    1.324087   -2.527463
C     -4.382905    1.692726   -3.144684
N     -5.414377    0.849075   -3.344546
C     -5.253911   -0.415923   -2.908273
C     -4.107098   -0.878510   -2.279630
N     -0.771511    0.478398   -1.235344
C      0.248741   -0.166122   -0.608476
S      1.814984    0.342676   -0.080898
H      4.395486    0.269658    1.052815
H      6.421140   -0.570641    2.169945
H      4.855134   -4.352271    2.592078
H      2.730468   -3.705002    1.488275
H     -2.409634    2.059354   -2.400383
H     -4.534299    2.706612   -3.504179
H     -6.100339   -1.074995   -3.081933
H     -4.074686   -1.915283   -1.964805
