40

C     -1.166128    1.505912    1.842087
C     -0.569412    0.098201    1.951700
C      0.160105   -0.088043    3.286947
C     -1.649737   -0.971786    1.763255
C     -1.358358   -1.762043    0.627424
C     -2.197142   -2.800596    0.253449
C     -3.337359   -3.048707    1.024386
C     -3.622833   -2.259400    2.153902
C     -4.831638   -2.535545    2.956981
O     -5.611804   -3.436679    2.676069
C     -2.779556   -1.210317    2.535666
C     -0.130931   -1.287516    0.025463
C      0.557373   -1.738023   -1.086387
C      1.742026   -1.084277   -1.450499
C      2.239150    0.016938   -0.721303
N      3.440835    0.649590   -1.107169
C      3.835071    2.001505   -0.825743
C      4.900851    1.826231   -1.911940
C      4.015898    0.684924   -2.422652
C      1.534994    0.451626    0.411203
C      0.359154   -0.197345    0.772467
H     -1.691495    1.649751    0.889931
H     -0.387985    2.275264    1.905756
H     -1.886732    1.697561    2.645475
H     -0.518990    0.052866    4.135719
H      0.980301    0.630663    3.397283
H      0.591143   -1.092828    3.375902
H     -1.983560   -3.413796   -0.615975
H     -4.007432   -3.860360    0.745559
H     -5.000482   -1.884498    3.831059
H     -2.993909   -0.598407    3.405533
H      0.201273   -2.580724   -1.668919
H      2.287556   -1.448316   -2.317437
H      3.051879    2.730498   -1.058787
H      4.212912    2.145374    0.188931
H      5.879178    1.505603   -1.536795
H      5.029504    2.670578   -2.593482
H      3.293888    0.969144   -3.195325
H      4.539909   -0.233434   -2.696571
H      1.902900    1.281275    1.005073
