38

O      2.253192    1.260530   -1.477830
C      1.355550    1.071221   -0.659858
C      1.789808    1.212251    0.741931
C      2.265682    2.440218    1.204220
C      2.702390    2.543159    2.521990
C      2.659941    1.408457    3.319044
N      2.224902    0.201867    2.890058
C      1.811817    0.124408    1.600966
N     -0.000593    0.782338   -0.935183
C     -1.015602    0.992160    0.118214
C     -1.475034   -0.247132    0.862253
C     -2.168959   -0.076924    2.072950
C     -2.629511   -1.177352    2.798558
C     -2.409942   -2.466392    2.322292
C     -1.732548   -2.654278    1.120393
C     -1.270447   -1.553603    0.394500
C     -0.457752    0.427248   -2.273764
C     -1.827301    0.275496   -2.571008
C     -2.277880   -0.077690   -3.851121
C     -1.368968   -0.301376   -4.874602
C     -0.011979   -0.184018   -4.610541
C      0.433127    0.167308   -3.327629
H      2.303653    3.300723    0.541351
H      3.077254    3.481709    2.915704
H      2.992548    1.438344    4.353353
H      1.502300   -0.864847    1.277556
H     -0.614282    1.697007    0.856010
H     -1.879037    1.526140   -0.293913
H     -2.352098    0.921416    2.466007
H     -3.157855   -1.027924    3.736548
H     -2.765453   -3.324335    2.886861
H     -1.561666   -3.660405    0.745354
H     -0.744586   -1.741570   -0.538539
H     -2.601949    0.406824   -1.823260
H     -3.343694   -0.181162   -4.039383
H     -1.713772   -0.574729   -5.867616
H      0.714919   -0.369276   -5.397732
H      1.509179    0.209420   -3.199422
