44

C      2.386929   -0.025463    1.241876
C      1.308555    1.014580    0.931309
C      0.401627    1.429558    2.081850
C      0.336789    0.723374    3.293981
C     -0.502661    1.147526    4.328277
C     -1.286172    2.287700    4.173105
C     -1.229858    3.008804    2.984569
C     -0.391421    2.586632    1.951188
C      0.408919    0.590761   -0.198193
N      0.392870    1.306252   -1.335629
N     -0.492339    0.624512   -2.106438
C     -0.834207    1.053170   -3.416176
C     -1.751502    0.316836   -4.180194
C     -2.085823    0.741698   -5.467680
C     -1.509225    1.897035   -5.995170
C     -0.596751    2.632426   -5.238729
C     -0.256993    2.214578   -3.950292
N     -1.020172   -0.494802   -1.557553
C     -0.468171   -0.520267   -0.337285
C     -0.783453   -1.585400    0.595966
C     -1.734440   -1.384416    1.602057
C     -2.030916   -2.410604    2.500846
C     -1.387432   -3.642991    2.389904
C     -0.451604   -3.854425    1.377411
C     -0.152324   -2.829367    0.478136
H      3.002333   -0.217848    0.355494
H      3.050630    0.328331    2.038675
H      1.969413   -0.985827    1.559162
H      1.852229    1.921612    0.627334
H      0.925882   -0.176085    3.454542
H     -0.544061    0.583089    5.256426
H     -1.937689    2.615320    4.978680
H     -1.836556    3.901887    2.859483
H     -0.360346    3.168180    1.030169
H     -2.212517   -0.586796   -3.785532
H     -2.797171    0.170278   -6.058799
H     -1.771823    2.225038   -6.997869
H     -0.148905    3.532621   -5.652235
H      0.456789    2.801687   -3.375880
H     -2.246400   -0.428428    1.692648
H     -2.767214   -2.247927    3.283629
H     -1.623061   -4.442866    3.087391
H      0.039471   -4.819533    1.283446
H      0.568789   -3.005320   -0.316765
