42

C      0.789489   -4.134770    2.028280
C      0.173394   -3.577425    0.740032
C     -1.102484   -4.340075    0.365534
C      1.185325   -3.603273   -0.407997
C      1.812033   -4.697756   -0.987886
C      2.707390   -4.468978   -2.034381
C      2.965099   -3.164789   -2.486273
C      2.331748   -2.065132   -1.899281
C      1.442807   -2.290196   -0.860319
C      0.656893   -1.358480   -0.079302
C      0.573385    0.024562   -0.150193
C     -0.282026    0.704616    0.731210
C     -0.384563    2.163488    0.667349
C      0.581833    3.125566    0.426048
C     -0.035136    4.406593    0.456297
C      0.420489    5.720068    0.293051
N     -0.441963    6.763889    0.377083
C     -1.747363    6.511768    0.620444
C     -2.296787    5.250314    0.797188
C     -1.389024    4.197479    0.707888
N     -1.574551    2.840250    0.826341
C     -1.032209   -0.027971    1.676547
C     -0.947620   -1.422080    1.750502
C     -0.102422   -2.076783    0.868100
H      0.093244   -4.054016    2.870995
H      1.703521   -3.595594    2.306021
H      1.054311   -5.192746    1.918681
H     -1.858466   -4.265307    1.155702
H     -1.552005   -3.949213   -0.555591
H     -0.897981   -5.404679    0.203542
H      1.616562   -5.707549   -0.642393
H      3.211887   -5.309146   -2.505996
H      3.666157   -3.008893   -3.302938
H      2.538573   -1.062202   -2.256881
H      1.154523    0.569696   -0.886981
H      1.632690    2.929119    0.255844
H      1.457418    5.965342    0.095506
H     -2.377165    7.396436    0.672962
H     -3.351257    5.105071    0.989602
H     -2.467978    2.397304    0.985689
H     -1.676690    0.488101    2.384500
H     -1.526011   -1.969994    2.487277
