40

C     -0.837401   -0.672364    1.066901
C     -0.661593   -0.148381    2.486010
C      0.134998    0.937120    2.537257
C      0.541544    1.211727    1.180794
C      0.001976    0.297912    0.262237
C      0.229074    0.319782   -1.146455
C     -0.381093   -0.665674   -1.948156
C     -0.211130   -0.715984   -3.332338
C      0.584266    0.231918   -3.953413
C      0.815341    0.249618   -5.408909
C      1.615201    1.245558   -5.821771
Si     2.197857    2.316294   -4.414432
C      1.226206    1.251149   -3.196761
C      1.067642    1.323504   -1.779936
C      1.613243    2.256550   -0.806684
C      2.442611    3.322279   -1.072418
S      2.882376    4.201400    0.341162
C      1.965751    3.168454    1.351716
C      1.346288    2.184860    0.621620
C     -1.334406   -0.832245    3.596086
C     -1.221767   -0.412520    4.919553
C     -1.894090   -1.118674    5.916197
C     -2.660079   -2.222880    5.569959
C     -2.721530   -2.575955    4.234514
N     -2.080214   -1.909362    3.249193
H     -1.885710   -0.621727    0.754515
H     -0.444220   -1.689800    0.970286
H      0.433935    1.513894    3.395090
H     -1.013904   -1.428653   -1.497601
H     -0.702818   -1.495643   -3.907108
H      0.367251   -0.487134   -6.062534
H      1.913648    1.442560   -6.839795
H      1.675627    3.702747   -4.505715
H      3.665126    2.228519   -4.207732
H      2.847806    3.681471   -2.001613
H      1.937764    3.346048    2.417517
H     -0.624109    0.449492    5.192079
H     -1.818118   -0.806254    6.953798
H     -3.195191   -2.793551    6.320278
H     -3.306200   -3.431310    3.908291
