47

C     -4.354256   -0.518290    2.075917
N     -3.681257    0.187800    3.039383
C     -2.440469    0.554449    2.571472
C     -2.331675    0.137799    1.262792
C     -3.546186   -0.586608    0.964337
C     -3.818561   -1.275767   -0.222146
C     -2.678112   -1.193418   -1.068015
C     -1.451685   -0.484961   -0.792966
C     -0.449290   -0.533769   -1.750819
C      0.784313    0.095258   -1.552413
C      1.113483    0.837102   -0.398948
C      0.047994    1.030571    0.524983
C      0.236855    2.016690    1.502572
C      1.409103    2.758000    1.594089
C      2.491753    2.489220    0.764269
C      3.631065    3.284771    0.910635
C      4.761994    3.063019    0.139933
C      4.816061    1.980322   -0.730540
C      6.016508    1.734624   -1.420694
C      6.166614    0.610795   -2.224122
C      5.124936   -0.294201   -2.316737
C      3.922996   -0.043790   -1.643957
C      3.687096    1.128268   -0.876942
C      2.428177    1.452885   -0.199107
C     -1.198881    0.283227    0.388656
C     -5.037177   -2.006568   -0.570069
N     -4.928113   -2.941456   -1.523826
C     -6.061863   -3.566599   -1.830907
N     -7.254859   -3.335992   -1.292591
C     -7.246190   -2.380427   -0.368597
N     -6.185357   -1.685309    0.033252
H     -5.335066   -0.920472    2.289523
H     -4.027109    0.370337    3.972598
H     -1.762632    1.049032    3.249081
H     -2.745497   -1.720160   -2.024678
H     -0.601482   -1.070623   -2.686006
H      1.472350    0.053561   -2.392725
H     -0.568761    2.307625    2.165118
H      1.460079    3.549655    2.339354
H      3.648833    4.103414    1.627855
H      5.620754    3.717365    0.272184
H      6.861225    2.413006   -1.316559
H      7.103787    0.427075   -2.741416
H      5.242517   -1.206820   -2.895076
H      3.180135   -0.834997   -1.685294
H     -6.006839   -4.335529   -2.593899
H     -8.193940   -2.143991    0.102838
