35

C      5.957775    2.128326    1.509522
C      5.176002    2.176917    2.661796
N      3.886933    1.777933    2.759075
C      3.392349    1.306220    1.597755
C      4.085301    1.214680    0.394119
C      5.413219    1.633322    0.322451
N      3.235708    0.683004   -0.552043
C      2.023185    0.443067    0.047110
C      0.721164   -0.056466   -0.216992
C      0.057052   -0.577546   -1.335316
C     -1.281513   -0.981144   -1.201487
C     -1.982688   -0.873919    0.012728
C     -1.294207   -0.358210    1.133154
C      0.043035    0.045798    1.001960
N      0.895576    0.575656    1.948742
C      2.099068    0.814445    1.351326
C     -3.383563   -1.298180    0.156291
N     -3.789861   -1.780821    1.385501
C     -5.072571   -2.198518    1.615471
C     -6.128354   -2.201127    0.714551
C     -5.780189   -1.703806   -0.553760
N     -6.622467   -1.593539   -1.593554
S     -5.747805   -0.942545   -2.842093
N     -4.262472   -0.781712   -2.126907
C     -4.378547   -1.233346   -0.862920
H      6.986003    2.474669    1.537616
H      5.597287    2.561820    3.587640
H      5.989919    1.579976   -0.593249
H      3.431296    0.488833   -1.524940
H      0.562126   -0.674460   -2.291059
H     -1.765844   -1.398768   -2.082308
H     -1.797457   -0.271215    2.093659
H      0.708247    0.770581    2.923953
H     -5.235662   -2.559668    2.630949
H     -7.121887   -2.544766    0.962759
