45

C     -4.053493   -4.413977    2.068328
O     -3.708742   -4.641492    0.707486
C     -2.583351   -4.016992    0.244373
C     -1.750322   -3.174224    0.978720
C     -0.624411   -2.599475    0.378461
C     -0.318755   -2.855005   -0.963931
C      0.885886   -2.213302   -1.611078
C      0.520430   -1.114261   -2.612118
N     -0.149422    0.012799   -1.987896
C     -0.180270    1.254084   -2.586558
O      0.458851    1.525479   -3.599380
C     -1.033068    2.284490   -1.867449
S      0.004727    3.280247   -0.758475
C      0.365227    2.116267    0.471463
N     -0.513953    1.239117    0.908116
N      0.064062    0.619484    1.974499
N      1.282579    1.084961    2.192486
N      1.530499    2.013142    1.222640
C      2.813051    2.626243    1.141759
C      3.698522    2.480977    2.226344
C      4.969865    3.059676    2.193481
C      5.378165    3.779858    1.075965
C      4.518929    3.914999   -0.010622
C      3.243485    3.338975    0.016681
C     -1.156397   -3.703654   -1.695771
C     -2.278641   -4.277511   -1.093175
H     -4.272908   -3.356092    2.248233
H     -4.963317   -4.983554    2.281877
H     -3.268723   -4.776233    2.741204
H     -1.943678   -2.941393    2.020560
H      0.012233   -1.947458    0.973774
H      1.463759   -2.994332   -2.120748
H      1.545916   -1.799071   -0.838243
H     -0.145565   -1.492575   -3.395679
H      1.431351   -0.753275   -3.102735
H     -0.824039   -0.189223   -1.255355
H     -1.481556    2.939388   -2.621404
H     -1.855527    1.808532   -1.324512
H      3.414394    1.927711    3.120670
H      5.639958    2.945363    3.041892
H      6.368166    4.227851    1.047034
H      4.845010    4.463068   -0.892168
H      2.647419    3.444912   -0.881836
H     -0.944194   -3.927971   -2.738516
H     -2.921985   -4.936330   -1.671448
