43

C      1.245729   -2.702212    0.668296
C      2.582897   -2.260224    0.444554
C      2.634332   -0.942336    0.046846
S      1.071835   -0.263004   -0.073461
C      0.302874   -1.719233    0.420291
C     -1.133726   -1.846561    0.559651
C     -1.807942   -2.790837    1.314664
C     -3.225509   -2.658527    1.234104
C     -3.608061   -1.616845    0.415867
S     -2.249397   -0.819462   -0.247723
C     -4.945884   -1.162074    0.078599
C     -5.480003   -1.181958   -1.233474
C     -6.808352   -0.758794   -1.562321
C     -7.736675   -0.271911   -0.617454
C     -7.205229   -0.248829    0.672552
C     -7.925400    0.192921    1.754456
S     -6.993254    0.114751    3.195113
C     -5.623358   -0.513025    2.365175
C     -5.868621   -0.673598    1.020876
C      3.795446   -0.145388   -0.285729
C      4.538643   -0.274751   -1.484522
C      5.704247    0.512450   -1.793822
C      6.248743    1.499759   -0.938710
C      5.507054    1.598297    0.231507
C      5.763813    2.443554    1.279251
N      4.793252    2.206902    2.230183
C      3.931182    1.218839    1.801047
C      4.348642    0.827405    0.552194
H      0.996128   -3.705686    0.988517
H      3.463612   -2.877055    0.576481
H     -1.312303   -3.547313    1.911155
H     -3.928906   -3.300748    1.750324
H     -4.852836   -1.547785   -2.047421
H     -7.118915   -0.820533   -2.605941
H     -8.735803    0.043335   -0.888283
H     -8.940746    0.562932    1.788904
H     -4.720938   -0.718714    2.922186
H      4.212384   -1.006937   -2.223686
H      6.197289    0.333186   -2.750071
H      7.125282    2.082708   -1.181472
H      6.532973    3.184452    1.447236
H      4.725209    2.685043    3.118451
H      3.107943    0.899445    2.425043
