62

C      0.404080   -5.849713   -6.202892
C      0.411206   -4.841323   -5.130449
C      0.628519   -3.484853   -5.412641
C      0.633922   -2.525290   -4.392550
C      0.424760   -2.889056   -3.054275
C      0.431608   -1.880764   -1.982075
C     -0.387457   -0.744357   -2.050699
C     -0.380938    0.215133   -1.030538
C      0.444881    0.071756    0.093942
C      0.451773    1.080165    1.166009
C      0.242038    0.716702    2.504239
C      0.247340    1.676433    3.524181
C      0.465207    3.032826    3.241888
C      0.472324    4.041214    4.313977
C      1.552717    4.921079    4.474127
C      1.559581    5.880479    5.494368
C      0.486371    5.993538    6.390099
C      0.493778    7.001843    7.462652
C      0.285798    6.635105    8.802908
C      0.293413    7.591600    9.821947
C      0.508312    8.933192    9.517223
C      0.715995    9.318706    8.195422
C      0.709198    8.360697    7.177801
C     -0.594035    5.113781    6.229915
C     -0.600977    4.154365    5.209674
C      0.676185    3.396115    1.903809
C      0.668287    2.436745    0.883547
C      1.263917   -1.064669    0.162607
C      1.257393   -2.024158   -0.857572
C      0.208780   -4.245776   -2.771948
C      0.200856   -5.204957   -3.792389
C     -0.680736   -6.727914   -6.364064
C     -0.688638   -7.685176   -7.382374
C      0.390368   -7.781246   -8.257271
C      1.476165   -6.921139   -8.115164
C      1.481860   -5.963703   -7.097003
H      0.787039   -3.159148   -6.438864
H      0.814235   -1.484497   -4.654301
H     -1.054557   -0.602072   -2.898738
H     -1.043172    1.074512   -1.116159
H      0.061344   -0.324042    2.766000
H      0.088316    1.350516    4.550252
H      2.412606    4.857202    3.810147
H      2.424363    6.533753    5.593159
H      0.127548    5.590743    9.064455
H      0.134095    7.286369   10.852786
H      0.513940    9.677521   10.309048
H      0.880928   10.365282    7.953233
H      0.862092    8.685151    6.150426
H     -1.453630    5.178066    6.894244
H     -1.466004    3.501352    5.111356
H      0.840171    4.439142    1.640104
H      0.844068    2.760477   -0.140479
H      1.931039   -1.206999    1.010610
H      1.919616   -2.883558   -0.772019
H      0.033428   -4.569832   -1.747977
H      0.037323   -6.248202   -3.529260
H     -1.539247   -6.662356   -5.698576
H     -1.539349   -8.352603   -7.491995
H      0.385084   -8.525645   -9.049029
H      2.321612   -6.995102   -8.794086
H      2.345466   -5.309232   -6.996697
