46

C      2.872326   -2.857109    1.183173
O      3.543645   -1.675807    1.032526
C      2.623287   -0.717176    0.712010
C      1.373093   -1.276585    0.651780
C      1.531832   -2.662929    0.963542
C      0.497888   -3.604862    1.002018
C     -0.747445   -2.986933    0.679019
C     -0.937497   -1.587517    0.366023
C     -2.208998   -1.082336    0.070551
C     -2.422359    0.275714   -0.240105
C     -1.337692    1.179517   -0.262393
C     -0.073544    0.671834    0.033161
O      0.857931    1.659249   -0.030235
C      0.211832    2.804905   -0.363366
C      0.843406    4.034424   -0.521306
C      0.035083    5.118024   -0.866584
C     -1.347639    4.975235   -1.045920
C     -2.135059    6.083580   -1.393300
C     -3.512820    5.956714   -1.575003
C     -4.125789    4.718994   -1.412197
C     -3.364675    3.600697   -1.066754
C     -1.969757    3.705483   -0.878015
C     -1.153942    2.583345   -0.523700
C      0.156155   -0.667715    0.344087
C      0.657577   -5.014004    1.290459
C      0.333155   -6.038617    0.389733
N      0.434386   -7.396324    0.576370
C      0.897682   -7.902876    1.755349
C      1.259475   -6.995461    2.769616
N      1.727062   -7.305638    3.989572
S      1.976181   -5.865028    4.775166
N      1.505417   -4.790011    3.604672
C      1.133161   -5.511560    2.531527
H      3.489317   -3.705614    1.442834
H      3.022665    0.276080    0.561965
H     -1.635838   -3.623955    0.679484
H     -3.073501   -1.745441    0.077135
H     -3.432465    0.604975   -0.459344
H      1.912732    4.139429   -0.381337
H      0.505990    6.091272   -0.995861
H     -1.679860    7.062984   -1.526541
H     -4.106631    6.826688   -1.843860
H     -5.199262    4.622005   -1.553941
H     -3.878234    2.654490   -0.948749
H     -0.045319   -5.777566   -0.600285
H      0.961646   -8.978150    1.855298
