30

C      1.999077    1.006591   -0.359422
C      1.406682    0.272082    0.832288
N      0.474800   -0.777851    0.357903
C      1.108019   -2.090463    0.071104
C      1.353009   -2.923693    1.318578
S     -1.070929   -0.828046    1.062044
O     -1.832355   -1.915319    0.487627
O     -0.878934   -0.741854    2.497109
C     -1.821018    0.669874    0.537286
C     -2.309161    1.598548    1.484290
C     -2.920648    2.819421    1.118621
C     -3.096074    3.214217   -0.217979
C     -2.625103    2.316440   -1.207134
N     -2.697163    2.513225   -2.531895
S     -2.019659    1.176276   -3.243196
N     -1.587051    0.301470   -1.904493
C     -1.969779    1.006841   -0.827288
H      1.214546    1.470871   -0.965411
H      2.677181    1.795367   -0.019083
H      2.564927    0.330024   -1.007372
H      2.205504   -0.162428    1.441454
H      0.889976    1.001859    1.464126
H      0.478945   -2.643307   -0.635692
H      2.061246   -1.925921   -0.444011
H      1.956963   -2.384243    2.054135
H      0.415648   -3.214380    1.802047
H      1.885309   -3.843222    1.054563
H     -2.219771    1.370976    2.548520
H     -3.274876    3.482671    1.909111
H     -3.567816    4.152477   -0.485906
