44

C     -4.415745   -3.659886    3.363986
C     -4.773676   -4.290216    2.168423
C     -4.033445   -3.809237    1.063045
C     -4.039434   -4.132665   -0.247844
S     -2.860446   -3.162094   -1.034863
C     -2.409508   -2.334810    0.422577
C     -1.402221   -1.310908    0.439557
C     -1.155660   -0.290589    1.339712
C     -0.062997    0.396623    0.817476
C      0.606833    1.528317    1.319388
C      0.359074    2.192755    2.481547
N      1.326825    3.164938    2.526992
C      2.145314    3.074295    1.409025
C      1.675568    2.071561    0.579784
C      2.215411    1.625451   -0.674450
C      3.274339    2.270662   -1.502089
C      3.794796    3.560481   -1.295537
N      4.779839    4.178999   -2.005408
C      5.300500    3.499466   -3.036697
C      4.865609    2.245972   -3.406580
C      3.835950    1.636539   -2.648621
C      3.252944    0.371774   -2.931813
C      3.661438   -0.420721   -3.983335
S      2.804994   -1.897904   -4.049728
C      1.880271   -1.485894   -2.666044
C      2.164073   -0.226956   -2.181376
C      1.553498    0.370907   -1.054176
C      0.423482   -0.155787   -0.350373
N     -0.462860   -1.191551   -0.575173
C     -3.141085   -2.818336    1.480449
S     -3.157116   -2.440038    3.253975
H     -4.831299   -3.849291    4.344429
H     -5.534213   -5.060180    2.123207
H     -4.633365   -4.857387   -0.786591
H     -1.710499   -0.063374    2.238343
H     -0.363794    2.066574    3.275281
H      1.456139    3.823516    3.284409
H      2.998584    3.732479    1.369718
H      3.385579    4.217767   -0.539740
H      6.087556    4.008823   -3.584205
H      5.313547    1.766629   -4.267812
H      4.427389   -0.239696   -4.722990
H      1.205541   -2.240412   -2.302891
H     -0.484034   -1.773204   -1.396598
