41

C     -4.248649   -1.910413   -1.398157
C     -3.602462   -0.662963   -0.873340
C     -2.307646   -0.903031   -0.624195
C     -1.283946   -0.050418   -0.121922
C     -1.375973    1.318095    0.256286
C     -0.173279    1.841138    0.706104
S      1.046523    0.612609    0.647097
C     -0.012430   -0.571073    0.039225
C      0.377065   -1.969770   -0.274306
C      1.678274   -2.461283   -0.097176
C      1.994475   -3.796376   -0.410151
C      3.277611   -4.325389   -0.248464
N      3.625324   -5.601347   -0.536304
C      2.647543   -6.398527   -1.011019
C      1.340897   -5.982364   -1.211550
C      0.999312   -4.658676   -0.908200
C     -0.306089   -4.172478   -1.087893
C     -0.627844   -2.843338   -0.778067
C     -1.991391   -2.294404   -0.953707
C     -3.109327   -2.890591   -1.404149
C      0.122982    3.186013    1.173113
S      1.712520    3.669848    1.707658
C      1.240919    5.276887    2.061688
C     -0.070626    5.392976    1.771497
C     -0.962517    6.485349    1.870957
C     -2.254759    6.157298    1.455491
S     -2.498157    4.508631    0.912468
C     -0.732348    4.263947    1.277329
H     -4.640486   -1.756783   -2.407866
H     -5.052758   -2.246221   -0.736878
H     -4.118698    0.272882   -0.726572
H     -2.297403    1.876183    0.192569
H      2.463346   -1.814015    0.286099
H      4.093267   -3.715089    0.131513
H      2.949612   -7.417770   -1.234943
H      0.608065   -6.682950   -1.597562
H     -1.072405   -4.840301   -1.472495
H     -3.211040   -3.914030   -1.728981
H      1.939597    6.005611    2.447767
H     -0.700295    7.474847    2.225536
H     -3.113398    6.814841    1.435832
