34

O     -1.665583   -0.250903   -0.479083
C     -0.690814   -0.949968   -0.207293
C     -0.871963   -2.412181   -0.227284
C     -2.116865   -2.986624   -0.509898
C     -2.253423   -4.375545   -0.523696
C     -1.149415   -5.186190   -0.256928
C      0.091529   -4.610229    0.023707
C      0.220902   -3.220719    0.036757
N      1.452292   -2.639418    0.312688
C      1.679097   -1.290749    0.356844
S      3.261355   -0.848804    0.708067
N      0.587869   -0.451082    0.111080
C      0.728401    1.029462    0.141389
C      0.558567    1.672415   -1.252776
C      0.041715    3.111707   -1.191804
C      0.578617    3.853883    0.024966
C      0.158055    3.193415    1.339944
C     -0.156830    1.700368    1.206252
H     -2.978271   -2.355778   -0.719260
H     -3.219753   -4.823871   -0.742946
H     -1.256463   -6.268542   -0.268346
H      0.942537   -5.253828    0.228845
H      2.253443   -3.232634    0.498978
H      1.749280    1.275909    0.446084
H     -0.104052    1.092457   -1.904054
H      1.534882    1.658764   -1.755399
H      0.322012    3.639785   -2.110249
H     -1.054912    3.104268   -1.156467
H      0.239584    4.896006    0.013362
H      1.674288    3.884022   -0.029734
H     -0.725076    3.702944    1.744335
H      0.956633    3.339019    2.077650
H     -1.218160    1.597202    0.956662
H     -0.023939    1.211245    2.178887
