46

C      5.345714    2.955136    2.761066
C      5.312316    1.458312    2.435612
C      4.184608    1.124459    1.767332
C      3.390018    2.285154    1.580884
C      4.051687    3.391668    2.163401
C      3.342937    4.553706    2.031608
S      1.860803    4.261967    1.189583
C      2.187826    2.571897    0.998972
C      1.235394    1.722263    0.309832
C     -0.050803    1.424118    0.825231
C     -1.001528    0.568457    0.177042
C     -0.715574   -0.073542   -1.081074
C      0.558281    0.221865   -1.599067
C      1.074514   -0.254640   -2.782018
S      2.657224    0.338958   -3.085086
C      2.669833    1.248901   -1.632343
C      1.501809    1.093963   -0.920331
C     -1.732979   -0.925448   -1.662478
O     -1.551009   -1.572079   -2.842680
C     -2.702053   -2.269258   -3.070639
C     -2.974228   -3.080202   -4.164320
C     -4.231979   -3.681352   -4.154515
C     -5.100879   -3.441439   -3.092661
N     -4.846566   -2.653685   -2.021816
C     -3.618554   -2.070343   -2.038244
C     -2.979058   -1.199490   -1.134241
C     -3.346142   -0.605783    0.106500
C     -4.513422   -0.762065    0.758882
Si    -4.543636    0.208759    2.340642
C     -2.806756    0.802141    1.949988
C     -2.354120    0.292798    0.782986
H      5.370434    3.117466    3.842119
H      6.200317    3.438640    2.279913
H      6.097192    0.770768    2.713741
H      3.919403    0.133696    1.425029
H      3.592724    5.548280    2.373384
H     -0.313380    1.877321    1.780043
H      0.630021   -0.918225   -3.508987
H      3.539881    1.844939   -1.392372
H     -2.257415   -3.228637   -4.960831
H     -4.534966   -4.332849   -4.968288
H     -6.083763   -3.908497   -3.080749
H     -5.352606   -1.362732    0.441754
H     -5.525089    1.319697    2.320856
H     -4.574481   -0.651288    3.547890
H     -2.309974    1.469454    2.633850
