40

C      0.848266   -2.265228    2.109643
N     -0.226958   -1.291601    1.951458
C     -0.382667   -0.660918    0.731309
C     -1.405863    0.190538    0.542740
C     -2.380965    0.428932    1.620604
O     -3.371590    1.125269    1.404996
N     -2.100081   -0.159534    2.834867
C     -3.013498    0.067914    3.938083
C     -1.070494   -1.068973    3.036921
O     -0.923733   -1.644786    4.117864
C     -1.583573    0.971912   -0.737784
N     -0.355622    1.099409   -1.566293
C      0.530139    2.147178   -1.004850
C      1.922473    2.276154   -1.671882
C      2.599521    3.603386   -1.345069
C      3.372311    3.287730   -0.090081
C      3.825560    1.871963   -0.357341
O      2.801112    1.251943   -1.146588
C      0.261777   -0.224905   -1.595348
N      0.498318   -0.882355   -0.322420
H      0.810267   -2.773465    3.076931
H      1.811104   -1.749561    2.034516
H      0.770149   -3.026820    1.326724
H     -3.683294   -0.794606    4.015301
H     -2.456712    0.163876    4.875647
H     -3.611134    0.971846    3.791476
H     -1.973681    1.976757   -0.532055
H     -2.354260    0.472643   -1.340153
H      0.672015    1.996594    0.072799
H      0.004605    3.101728   -1.133782
H      1.834803    2.150969   -2.757015
H      3.304460    3.858462   -2.146302
H      1.907806    4.442698   -1.232190
H      4.203148    3.972719    0.097867
H      2.703881    3.313064    0.778188
H      3.979933    1.298511    0.560845
H      4.752548    1.854935   -0.940366
H      1.180472   -0.229110   -2.191327
H     -0.404345   -0.881631   -2.173391
H      1.467519   -0.774832   -0.031875
