33

C      2.499559    2.394793    0.922399
C      2.759348    0.957647    0.555473
C      1.946296    0.177289   -0.192133
C      0.727926    0.721817   -0.886887
C      2.289134   -1.280521   -0.411905
N      1.565673   -2.253092   -0.879125
O      0.231141   -1.903688   -1.142542
S     -0.681872   -3.125219   -1.767132
O     -0.223719   -3.423215   -3.112680
O     -0.832124   -4.174986   -0.775278
C     -2.276412   -2.341194   -1.923780
C     -2.676963   -1.816449   -3.156309
C     -3.926847   -1.207232   -3.265974
C     -4.767844   -1.130705   -2.153900
C     -4.366470   -1.666001   -0.928393
C     -3.118597   -2.276942   -0.808822
C      3.662955   -1.690093   -0.025006
C      4.469992   -0.905467    0.685579
C      4.046639    0.435854    1.100349
O      4.765286    1.099419    1.838496
H      1.459056    2.694958    0.775264
H      3.137686    3.058162    0.329786
H      2.708687    2.570172    1.983731
H      0.745837    1.810328   -0.990177
H      0.665731    0.347360   -1.914399
H     -0.182532    0.453266   -0.342364
H     -2.030950   -1.879892   -4.029455
H     -4.250341   -0.797013   -4.219988
H     -5.744010   -0.659318   -2.244979
H     -5.031109   -1.612462   -0.069094
H     -2.815145   -2.702319    0.145649
H      3.966280   -2.694414   -0.303550
H      5.454873   -1.226048    1.002208
