34

N      0.761895    0.779156   -0.727361
C     -0.399707    0.038205   -0.963855
C     -1.177188   -0.554950    0.126435
C     -0.736084   -0.369630    1.449418
C      0.501471    0.420170    1.696131
C      1.241074    0.987574    0.618621
C      2.401151    1.724235    0.896869
C      2.847577    1.914119    2.206099
C      2.141125    1.370085    3.262165
C      0.985208    0.634244    3.007889
C     -1.507879   -0.954174    2.476571
C     -2.665625   -1.689846    2.204880
C     -3.084227   -1.861499    0.895096
C     -2.343496   -1.296726   -0.139204
C     -0.623435   -0.002304   -2.321903
C      0.401091    0.717501   -2.964377
C      1.269302    1.207923   -1.973382
C      2.387430    1.970718   -2.381905
C      2.610763    2.222730   -3.743310
C      1.750155    1.735413   -4.710258
C      0.643973    0.982613   -4.329763
H      3.008813    2.180532    0.138047
H      3.750634    2.489826    2.393867
H      2.483262    1.514206    4.283481
H      0.471916    0.231172    3.875064
H     -1.232155   -0.855288    3.521353
H     -3.235687   -2.126094    3.021185
H     -3.982628   -2.431726    0.675766
H     -2.690955   -1.444550   -1.157557
H     -1.444495   -0.500328   -2.819175
H      3.108091    2.388557   -1.697258
H      3.475776    2.811451   -4.041357
H      1.934778    1.937966   -5.761448
H     -0.034442    0.598040   -5.086616
