41

C      4.870371    1.536725   -2.543318
C      6.192276    2.061940   -3.110773
C      6.664531    1.252056   -4.084304
C      5.769843    0.168892   -4.261183
C      5.722918   -0.924758   -5.066686
S      4.300267   -1.829919   -4.711906
C      3.768609   -0.724657   -3.471846
C      4.683267    0.299076   -3.361179
C      2.539766   -0.968351   -2.751089
N      1.808469   -2.047671   -2.939838
C      0.698722   -2.024478   -2.117514
C      0.562638   -0.912273   -1.307500
S      1.906494    0.124361   -1.583114
C     -0.474142   -0.565388   -0.338439
C     -0.963966    0.744359   -0.150076
C     -1.972495    1.076428    0.786691
C     -2.605575    0.140154    1.637424
C     -3.643904    0.497035    2.597682
C     -3.662256    0.101547    3.945753
N     -4.592553    0.405975    4.912444
C     -5.679446    1.171735    4.613906
C     -5.812597    1.643522    3.294764
N     -6.809089    2.406537    2.817358
S     -6.478739    2.658644    1.212011
N     -5.051367    1.829163    1.056241
C     -4.767982    1.298998    2.261715
C     -2.151127   -1.204959    1.488910
N     -2.595242   -2.273534    2.174985
S     -1.754792   -3.589794    1.628592
N     -0.778621   -2.880658    0.497823
C     -1.069478   -1.567019    0.483249
H      4.069600    2.262511   -2.710000
H      4.974165    1.311221   -1.478323
H      6.671967    2.965621   -2.765162
H      7.578082    1.397938   -4.643401
H      6.416326   -1.252561   -5.827974
H      0.006668   -2.857843   -2.158760
H     -0.566625    1.557124   -0.760337
H     -2.272736    2.125552    0.842550
H     -2.853488   -0.521547    4.332501
H     -6.386900    1.379225    5.405454
