38

C     -2.641866   -2.523403   -1.665522
N     -2.348586   -2.224309   -0.280434
N     -3.193108   -2.693423    0.664553
C     -2.673135   -2.280090    1.827673
C     -1.475436   -1.512365    1.576106
C     -0.645241   -0.944274    2.549875
C     -1.119390   -1.182872    3.857337
O     -0.496821   -0.736296    5.001750
C      0.721531   -0.021664    4.838378
C     -2.312250   -1.925552    4.130467
C     -3.130103   -2.502926    3.135281
C     -1.303804   -1.468913    0.209132
C     -0.325610   -0.837191   -0.626144
C      0.366526    0.346008   -0.432931
C      1.210584    0.531607   -1.554988
C      0.990128   -0.540140   -2.397315
O      0.055159   -1.362954   -1.832735
C      1.535159   -0.906154   -3.683422
O      2.464262    0.019865   -4.065492
C      3.097048   -0.217073   -5.331223
C      2.266300    0.379503   -6.451813
O      1.218974   -1.886888   -4.345575
H     -2.636916   -1.592397   -2.237431
H     -1.885094   -3.219756   -2.034299
H     -3.631267   -2.983953   -1.736074
H      0.259302   -0.403680    2.325767
H      1.483990   -0.644688    4.359307
H      0.561901    0.907900    4.282182
H      1.088155    0.245628    5.834145
H     -2.603665   -2.060154    5.172764
H     -4.023166   -3.069969    3.355969
H      0.264000    1.012221    0.412124
H      1.890530    1.352715   -1.737768
H      3.282066   -1.285303   -5.492319
H      4.074362    0.275473   -5.296499
H      2.769444    0.256926   -7.415074
H      2.093971    1.446489   -6.276328
H      1.282399   -0.096683   -6.508485
