39

C      3.483835   -1.572692   -0.172559
O      4.393037   -0.587866   -0.473650
C      3.763423    0.617245   -0.318034
C      2.490053    0.355545    0.072329
C      2.261447   -1.036638    0.180110
C      1.072249   -1.708368    0.556646
C      0.033117   -0.765426    0.842797
C      0.250462    0.626343    0.738411
O     -0.662653    1.612123    0.985451
C     -0.036919    2.815818    0.763486
C      1.289497    2.618202    0.370042
C      2.066639    3.741158    0.104806
N      1.536955    4.988674    0.229168
C      0.261819    5.169643    0.607658
C     -0.213517    6.485997    0.713740
C     -1.522825    6.848906    1.097421
C     -2.399845    5.781899    1.391124
N     -3.679453    5.902123    1.772670
S     -4.250422    4.358377    1.987686
N     -2.900775    3.473940    1.606498
C     -1.932058    4.351324    1.290515
C     -0.596142    4.081134    0.896248
C      1.426351    1.231681    0.367740
C      0.902129   -3.175810    0.648946
C     -0.298832   -3.784422    1.027230
C     -0.389329   -5.176462    1.093459
C      0.718595   -5.946287    0.781798
C      1.873045   -5.285798    0.416032
N      1.980608   -3.939132    0.345944
H      3.875293   -2.576220   -0.262188
H      4.362816    1.491482   -0.522834
H     -0.955498   -1.090181    1.149275
H      3.104058    3.695175   -0.205965
H      0.485947    7.291416    0.480773
H     -1.838504    7.883189    1.163380
H     -1.180976   -3.206585    1.276379
H     -1.322111   -5.649765    1.387291
H      0.684068   -7.028650    0.822512
H      2.775044   -5.834365    0.160109
