45

Si     6.455208    0.117659    3.186155
C      5.813115   -0.883482    1.688141
C      4.502644   -0.643745    1.461319
C      3.890611    0.286798    2.365673
C      4.724870    0.829333    3.380512
C      4.108541    1.697039    4.227585
S      2.450124    1.857535    3.776551
C      2.602007    0.760896    2.441897
C      1.440676    0.483428    1.619771
C      0.276512   -0.182712    2.070388
C     -0.858127   -0.467625    1.233558
C     -0.957792   -0.113808   -0.140383
C     -2.115179   -0.400171   -0.978101
C     -2.526708   -1.720868   -1.204682
C     -3.645674   -2.002695   -1.998051
C     -4.390193   -0.969007   -2.580949
C     -3.982011    0.352197   -2.355596
C     -2.862861    0.631717   -1.562369
C     -5.560043   -1.242269   -3.426741
C     -5.904391   -0.663603   -4.636001
C     -7.129375   -1.168655   -5.161458
C     -7.690970   -2.113649   -4.334360
S     -6.745848   -2.385489   -2.937053
C      0.206720    0.543886   -0.564115
C      0.492635    1.013333   -1.824300
N      1.743000    1.589945   -1.775654
C      2.267398    1.484952   -0.506551
C      1.341747    0.825007    0.266272
H      6.869553   -0.783419    4.290328
H      7.474489    1.109971    2.762175
H      6.466294   -1.542077    1.139150
H      3.942884   -1.114439    0.660615
H      4.504360    2.241768    5.073735
H      0.230312   -0.507252    3.110481
H     -1.701614   -0.982477    1.696851
H     -1.967257   -2.547704   -0.771143
H     -3.918945   -3.042626   -2.161904
H     -4.540854    1.182069   -2.782105
H     -2.580859    1.669447   -1.393382
H     -5.297478    0.085780   -5.129809
H     -7.574379   -0.853671   -6.097191
H     -8.613393   -2.658595   -4.480357
H     -0.066755    0.996536   -2.749853
H      2.209868    2.026587   -2.559777
H      3.245852    1.887755   -0.281290
