20

C      4.005483   -2.684849   -0.257599
C      3.059805   -3.636437    0.111070
C      1.721514   -3.279856    0.305176
C      1.358037   -1.935649    0.117965
S     -0.186350   -1.194615    0.278573
C      0.493104    0.324640   -0.147021
C     -0.359038    1.661267   -0.236846
C     -1.715999    1.727025    0.016860
S     -2.275141    3.338007   -0.183257
C     -0.680608    3.818308   -0.588620
N      0.228308    2.870447   -0.584722
N      1.784639    0.314913   -0.398660
C      2.289219   -0.964088   -0.251688
C      3.631793   -1.349545   -0.441081
H      5.042635   -2.976976   -0.404979
H      3.364040   -4.671865    0.250512
H      0.985020   -4.023891    0.592845
H     -2.397254    0.939124    0.302129
H     -0.441942    4.845323   -0.833018
H      4.365125   -0.602443   -0.728728
