39

Si    -4.032759   -2.142582    1.951088
C     -4.287200   -1.235271    3.568126
C     -3.464156   -0.183657    3.722426
C     -2.560557    0.006120    2.588620
C     -2.642079   -0.897011    1.494094
C     -1.821321   -0.839021    0.309665
C     -1.976537   -1.773029   -0.713276
N     -1.271685   -1.821961   -1.863783
C     -0.328790   -0.905120   -2.075793
C      0.357313   -1.011712   -3.275227
C      1.360378   -0.115064   -3.606925
N      1.676560    0.878024   -2.751777
C      0.994058    0.966670   -1.582138
C     -0.032953    0.113028   -1.155500
C     -0.802771    0.160020    0.092210
C     -0.739250    1.072959    1.227618
C      0.114680    2.144978    1.361759
S     -0.088748    3.005418    2.836974
C     -1.337717    1.959213    3.345441
C     -1.589395    0.981559    2.412070
C      2.142218   -0.155232   -4.863839
C      3.147616    0.790217   -5.134769
C      3.882205    0.749021   -6.320351
C      3.597680   -0.249764   -7.230326
N      2.648638   -1.184295   -7.031375
C      1.953762   -1.111954   -5.864806
H     -3.494092   -3.512151    2.133066
H     -5.189586   -2.023495    1.030994
H     -5.034934   -1.564391    4.273947
H     -3.463009    0.460302    4.590484
H     -2.713276   -2.570269   -0.656713
H      0.077823   -1.821780   -3.939615
H      1.342400    1.799461   -0.992850
H      0.877080    2.534607    0.714915
H     -1.810767    2.128867    4.302350
H      3.367869    1.575747   -4.413661
H      4.655602    1.481307   -6.522011
H      4.139418   -0.327267   -8.168276
H      1.208651   -1.896934   -5.777696
