40

C     -2.664320    1.101121    6.309652
C     -2.046787    0.798577    4.978580
C     -0.758608    1.285392    4.665738
C     -0.103516    1.047768    3.433355
C     -0.660125    0.293938    2.372557
C      0.043003    0.070422    1.103738
C      0.589466    1.148735    0.393473
C      1.254016    0.875124   -0.790138
C      1.422124   -0.409896   -1.331724
C      0.885652   -1.478462   -0.632964
C      0.205593   -1.234270    0.573603
C      2.165826   -0.413826   -2.593484
C      2.515688   -1.490786   -3.394218
C      3.241141   -1.258246   -4.574076
C      3.613911    0.045405   -4.969912
C      3.277602    1.135329   -4.161964
C      2.562918    0.870460   -3.007442
S      2.017338    2.065138   -1.837042
O      3.171471    2.603438   -1.150064
O      0.984569    2.874931   -2.445248
C      4.417560    0.250451   -6.221518
C     -1.966180   -0.225309    2.626358
N     -2.719335   -0.960831    1.787223
S     -4.141570   -1.287669    2.568470
N     -3.882747   -0.526692    4.015861
C     -2.663662    0.034224    3.949385
H     -2.770026    2.183222    6.436847
H     -2.034219    0.707950    7.113849
H     -3.656577    0.651351    6.409051
H     -0.229505    1.879890    5.413505
H      0.896816    1.467882    3.309415
H      0.492694    2.173025    0.741666
H      0.977194   -2.497964   -0.995561
H     -0.207842   -2.088226    1.111143
H      2.242845   -2.507340   -3.126850
H      3.518496   -2.109602   -5.194801
H      3.559563    2.151058   -4.421388
H      5.485165    0.160423   -5.998898
H      4.227791    1.239966   -6.650545
H      4.149109   -0.490225   -6.982055
