41

C      1.323926    3.086997   -5.391031
C      1.444988    4.153361   -4.513860
C      1.317772    3.935125   -3.141037
C      1.067862    2.652853   -2.608279
C      0.925183    1.584372   -3.504889
C      1.069090    1.812810   -4.890076
C      0.667877    0.173135   -3.047339
C     -0.517872    0.076009   -2.096877
C     -0.139631    0.384244   -0.671526
C     -0.528287   -0.535687    0.330080
C     -0.239344   -0.322176    1.682776
C     -0.637263   -1.287362    2.707160
C     -1.081207   -1.094398    4.004788
C     -1.325145   -2.364873    4.595603
C     -1.779412   -2.794610    5.847975
N     -1.906324   -4.118041    6.117846
C     -1.586060   -5.012143    5.156128
C     -1.128863   -4.689100    3.886884
C     -1.009705   -3.324009    3.636281
N     -0.594499   -2.651116    2.511446
C      0.437882    0.842298    2.034717
C      0.816434    1.762996    1.052879
C      0.529639    1.560515   -0.311133
N      0.959763    2.552637   -1.209227
H      1.426038    3.242864   -6.461387
H      1.639247    5.153448   -4.891042
H      1.415573    4.791234   -2.477265
H      0.979611    0.986926   -5.593167
H      1.583697   -0.238883   -2.604913
H      0.439725   -0.450477   -3.921581
H     -0.899050   -0.951984   -2.152123
H     -1.345287    0.728438   -2.403386
H     -1.086136   -1.423281    0.038352
H     -1.227979   -0.133193    4.480463
H     -2.045395   -2.111572    6.646158
H     -1.712241   -6.052619    5.445153
H     -0.886153   -5.446624    3.153889
H     -0.278364   -3.097835    1.662751
H      0.690737    1.044897    3.072380
H      1.350727    2.655533    1.371144
H      1.262881    3.397607   -0.737999
