48

C     -0.658154   -4.679133    3.196795
C      0.406572   -5.224038    4.128209
C      1.513300   -4.467766    4.161180
C      1.267353   -3.374911    3.258097
C     -0.007886   -3.434902    2.643976
C     -0.493895   -2.464754    1.705132
C      0.344412   -1.331689    1.317779
C      1.603036   -1.289564    1.964043
C      2.621307   -0.366027    1.895672
N      3.640868   -0.793111    2.728793
C      3.290286   -1.968141    3.349286
C      2.036951   -2.287627    2.898737
C     -0.154952   -0.366505    0.343184
N      0.490174    0.700533   -0.224808
C     -0.345867    1.373346   -1.088621
C     -1.536686    0.674490   -1.130746
C     -1.408117   -0.413490   -0.239638
C     -2.309191   -1.463361    0.097012
C     -3.554367   -1.612916   -0.396131
Si    -4.374481   -3.122358    0.287042
C     -2.817669   -3.454128    1.274239
C     -1.864327   -2.517738    1.067396
C      0.060796    2.552358   -1.790235
S     -0.269146    2.757649   -3.476676
C      0.524911    4.290199   -3.547198
C      1.006528    4.639633   -2.315192
C      1.711557    5.809999   -1.889546
C      2.021440    5.838595   -0.574779
Si     1.390828    4.270592    0.320321
C      0.728489    3.650818   -1.331961
H     -1.556873   -4.439168    3.772037
H     -0.863923   -5.407503    2.407280
H      0.270292   -6.130430    4.701216
H      2.410550   -4.625493    4.734510
H      2.757613    0.560588    1.364092
H      4.515049   -0.303256    2.869681
H      3.959930   -2.450667    4.047861
H      1.453515    0.948522   -0.076923
H     -2.396396    0.928009   -1.736458
H     -4.051363   -0.969353   -1.103928
H     -5.531724   -2.810987    1.160337
H     -4.618392   -4.166837   -0.736773
H     -2.805844   -4.322635    1.902856
H      0.577139    4.833019   -4.480248
H      1.970458    6.606397   -2.577879
H      2.542544    6.613858   -0.036762
H      2.516583    3.445142    0.833158
H      0.351147    4.617905    1.319142
