39

C      2.090260    1.044207    6.342801
C      1.685858    0.841218    4.911167
C      2.627484    1.032229    3.875862
C      2.293170    0.822161    2.528025
C      1.009102    0.407276    2.207474
C      0.098375    0.212772    3.261271
C      0.393689    0.409716    4.598449
C      0.436323    0.124331    0.889501
C      1.037030    0.205565   -0.356315
C      0.286538   -0.121361   -1.499476
C     -1.068957   -0.531909   -1.424693
C     -1.819620   -0.873648   -2.646143
C     -3.066026   -0.292121   -2.934866
C     -3.785475   -0.608209   -4.095296
C     -5.121249    0.023777   -4.344985
C     -3.254893   -1.547167   -4.984549
C     -2.020812   -2.140610   -4.722200
C     -1.310149   -1.805933   -3.566037
F     -3.591731    0.604728   -2.083357
C     -1.673318   -0.609940   -0.162303
C     -0.907588   -0.282398    0.943521
S     -1.451104   -0.317407    2.616355
O     -2.417780    0.740243    2.814378
O     -1.662765   -1.695369    3.003562
H      2.517156    0.120386    6.744989
H      1.229489    1.332232    6.955438
H      2.831975    1.845284    6.427743
H      3.639929    1.351337    4.120999
H      3.043939    0.984778    1.760557
H     -0.354854    0.234560    5.364986
H      2.070899    0.518396   -0.467886
H      0.769701   -0.040256   -2.473227
H     -5.436777   -0.111027   -5.384904
H     -5.078682    1.101247   -4.154621
H     -5.876762   -0.426535   -3.693685
H     -3.798866   -1.823190   -5.885290
H     -1.612331   -2.871652   -5.416247
H     -0.356206   -2.295487   -3.378646
H     -2.708106   -0.918739   -0.042696
