31

Si    -1.235819    0.618437   -2.258152
C     -1.892842    2.084916   -1.286684
C     -1.285639    2.204915   -0.084193
C     -0.265812    1.178506    0.187377
C      0.487208    1.089780    1.340599
C      1.423300    0.056092    1.459706
C      1.616918   -0.903645    0.422481
C      0.841635   -0.796149   -0.741912
S      1.229483   -2.045102   -1.860876
C      2.410608   -2.734397   -0.834948
C      3.216988   -3.858910   -1.065442
C      4.109824   -4.220779   -0.063308
C      4.155894   -3.463873    1.092461
N      3.396906   -2.381088    1.344057
C      2.519861   -2.026203    0.358867
C     -0.093773    0.241759   -0.853860
C     -2.903409    2.988317   -1.717505
N     -3.344508    4.014976   -1.005799
C     -4.325308    4.712887   -1.678336
C     -4.648655    4.225573   -2.920800
S     -3.696584    2.849774   -3.261637
H     -0.517428    1.028176   -3.493321
H     -2.263787   -0.435067   -2.465610
H     -1.506387    2.978447    0.641996
H      0.364198    1.804494    2.149083
H      2.023335   -0.024487    2.364664
H      3.146614   -4.423784   -1.989150
H      4.759536   -5.081133   -0.183964
H      4.846055   -3.726827    1.890975
H     -4.774694    5.579220   -1.208768
H     -5.377856    4.602413   -3.622893
