45

C      3.946073   -0.913682    5.360959
C      3.532016   -0.304040    6.552751
C      2.421443    0.474832    6.192880
C      1.513387    1.309416    6.741610
S      0.440461    1.830620    5.470332
C      1.266428    0.917203    4.251728
C      0.859974    0.895829    2.867409
C     -0.411695    0.445710    2.442264
C     -0.830531    0.417599    1.075964
C     -0.029774    0.844935   -0.012229
C     -0.502209    0.835653   -1.379823
C     -0.379498    1.675742   -2.466414
C     -1.115331    1.083577   -3.523618
C     -1.652436   -0.087281   -3.029076
O     -1.293104   -0.225500   -1.716973
C     -2.490247   -1.142122   -3.552145
C     -3.332551   -1.965688   -2.756391
C     -4.183707   -3.007565   -3.273703
C     -4.283612   -3.344956   -4.641623
C     -3.444948   -2.538441   -5.397907
C     -3.265723   -2.594228   -6.753411
O     -2.341836   -1.658499   -7.127073
C     -1.932901   -1.005545   -5.995107
C     -2.596782   -1.499492   -4.900241
C      1.241952    1.288414    0.401571
C      2.245519    1.706940   -0.442863
S      3.651479    2.193624    0.412733
C      2.947249    1.811257    1.928693
C      1.670645    1.313391    1.793794
C      2.284589    0.260092    4.842521
O      3.181177   -0.582242    4.257336
H      4.754524   -1.598970    5.141024
H      3.989477   -0.429908    7.523381
H      1.386925    1.647885    7.759982
H     -1.120796    0.089919    3.191108
H     -1.836791    0.050232    0.866770
H      0.155028    2.614786   -2.492327
H     -1.251785    1.485249   -4.516933
H     -3.346617   -1.801762   -1.677174
H     -4.786191   -3.569312   -2.558305
H     -4.921868   -4.130791   -5.019224
H     -3.671008   -3.195645   -7.554584
H     -1.179419   -0.249593   -6.158681
H      2.257541    1.759605   -1.521421
H      3.527814    1.965265    2.827552
