37

C     -2.790777    1.903745    0.314921
C     -3.025459    0.512700    0.830677
C     -1.977045   -0.257193    0.515697
C     -1.697029   -1.619773    0.762752
C     -2.386798   -2.659135    1.411327
N     -3.538128   -2.960327    2.083503
C     -3.481051   -4.288704    2.434687
C     -2.296206   -4.846434    1.991735
C     -1.618694   -3.785277    1.343201
N     -0.457424   -3.494977    0.669690
C     -0.505963   -2.171025    0.314599
C      0.518395   -1.429118   -0.418972
N      1.619742   -2.121169   -0.782620
C      2.553937   -1.409307   -1.460900
C      2.448362   -0.052845   -1.793060
C      1.282451    0.620858   -1.397480
C      0.290267   -0.061917   -0.695420
C     -0.979038    0.537754   -0.219837
C     -1.441212    1.793666   -0.341974
C      3.493779    0.651208   -2.544934
C      3.350807    1.555898   -3.582741
C      4.599525    2.051841   -4.058942
C      5.661319    1.518315   -3.365935
S      5.151763    0.429644   -2.152096
H     -3.558098    2.188718   -0.410878
H     -2.770239    2.628587    1.134044
H     -3.906136    0.202314    1.368934
H     -4.275879   -2.293054    2.268161
H     -4.302243   -4.734817    2.980334
H     -1.972200   -5.869684    2.120138
H      0.289544   -4.149669    0.478224
H      3.423968   -1.992930   -1.753065
H      1.159687    1.674851   -1.627297
H     -0.944889    2.618601   -0.828534
H      2.390830    1.845155   -3.994017
H      4.711723    2.763225   -4.868052
H      6.714590    1.715733   -3.511759
