45

C      3.986582    2.667669    4.183654
C      4.213392    3.426485    2.868093
C      5.649798    3.961258    2.840149
C      3.986508    2.485500    1.660607
C      2.521773    2.394035    1.319621
N      2.020457    1.189694    0.962365
C      0.712147    1.235680    0.650141
O      0.010406    0.132311    0.273103
C     -1.270950    0.530137    0.024996
C     -2.363684   -0.242683   -0.393810
N     -2.377468   -1.630021   -0.617546
C     -1.084084   -2.281064   -0.902132
C     -1.257721   -3.801039   -1.058939
O     -2.255658   -4.128158   -2.035183
C     -3.520332   -3.587603   -1.627374
C     -3.468268   -2.057450   -1.520514
N     -3.523399    0.464677   -0.551314
C     -3.551163    1.792025   -0.316247
N     -2.540998    2.579593    0.074139
C     -1.386576    1.895643    0.242702
C     -0.111104    2.358808    0.647972
C      0.453638    3.592493    1.011254
C      1.805435    3.592729    1.359647
C      2.559513    4.826362    1.752595
O      3.339914    4.573641    2.919415
H      4.151717    3.323315    5.046617
H      4.653764    1.804172    4.274035
H      2.951653    2.315430    4.259811
H      6.383817    3.148924    2.853877
H      5.840978    4.617703    3.696889
H      5.820064    4.568420    1.943692
H      4.408380    1.491272    1.849598
H      4.493250    2.879738    0.769570
H     -0.374198   -2.132149   -0.083866
H     -0.664157   -1.867887   -1.827626
H     -1.529583   -4.263942   -0.102350
H     -0.313518   -4.248776   -1.385232
H     -3.813098   -4.039845   -0.672020
H     -4.263720   -3.881717   -2.375150
H     -4.446189   -1.718225   -1.158900
H     -3.294960   -1.635522   -2.519152
H     -4.510771    2.278992   -0.462690
H     -0.145819    4.497137    1.023509
H      1.871135    5.643195    1.992144
H      3.209913    5.162611    0.936921
