43

C     -3.890985   -0.274440   -0.779024
C     -2.697598   -0.406308    0.127266
C     -2.539789    0.506654    1.176477
C     -1.433530    0.394289    2.001477
S     -1.161342    1.561924    3.310884
C      0.167705    2.540793    2.546784
C      1.471320    1.768302    2.414691
O      2.153745    1.549976    3.420269
C      1.920677    1.343027    1.073154
C      1.314227    1.608495   -0.189428
C      2.058459    0.999926   -1.179052
C      1.807308    0.963294   -2.645026
N      3.125402    0.384013   -0.565478
C      4.175868   -0.353882   -1.240121
C      3.043945    0.561798    0.802659
C      4.028549   -0.028874    1.759800
N     -0.505475   -0.567598    1.858113
C     -0.633221   -1.439833    0.847576
C      0.353363   -2.403685    0.687837
C      0.305963   -3.344823   -0.342526
C     -0.752775   -3.327309   -1.239315
C     -1.755794   -2.368081   -1.101599
C     -1.715024   -1.409086   -0.061486
H     -4.436633   -1.221422   -0.836214
H     -3.573400    0.028463   -1.781929
H     -4.595753    0.477579   -0.407811
H     -3.266551    1.296835    1.340991
H     -0.171922    2.955600    1.595604
H      0.367176    3.400631    3.196528
H      0.406931    2.167860   -0.376392
H      1.738333   -0.069322   -3.002593
H      0.864767    1.464356   -2.891683
H      2.608670    1.474202   -3.188124
H      4.118935   -0.201765   -2.320439
H      4.049509   -1.414619   -1.008958
H      5.141145    0.012406   -0.883259
H      4.727276    0.740600    2.103681
H      3.517920   -0.452330    2.630732
H      4.609725   -0.842808    1.316830
H      1.189532   -2.414434    1.384931
H      1.096742   -4.084022   -0.438435
H     -0.800073   -4.056079   -2.045151
H     -2.571687   -2.374662   -1.819928
