35

C      1.664612   -4.482441   -1.945962
C      2.825213   -3.723413   -1.993348
C      2.487649   -2.512913   -1.390988
C      3.247178   -1.332177   -1.140618
N      4.523776   -1.232664   -1.494959
S      4.940702    0.322764   -0.983829
N      3.478218    0.846183   -0.315923
C      2.666427   -0.190177   -0.491114
C      1.302841   -0.182428   -0.065607
C      0.558274   -1.316981   -0.301602
O     -0.716161   -1.162829    0.155747
C     -0.781127    0.102382    0.696815
C     -1.926444    0.680968    1.288174
C     -1.853508    1.990588    1.814323
C     -2.980401    2.659030    2.428414
C     -4.134059    3.154872    1.852372
N     -5.045210    3.725403    2.721429
C     -4.577170    3.646195    3.947414
S     -3.046561    2.894144    4.127686
C     -0.594946    2.585302    1.659763
C     -0.210225    3.852930    2.034665
O      1.104878    4.069816    1.709080
C      1.579009    2.929683    1.108687
C      0.560878    2.030939    1.069717
C      0.463348    0.710091    0.561675
C      1.181492   -2.529249   -0.993141
N      0.666556   -3.743361   -1.332832
H      1.458807   -5.486096   -2.294859
H      3.776402   -4.025539   -2.412178
H     -2.848842    0.109553    1.340652
H     -4.363205    3.129635    0.793444
H     -5.122888    4.029297    4.799914
H     -0.703519    4.687691    2.513577
H      2.611568    2.965556    0.795630
H     -0.283199   -4.051441   -1.165031
