47

C     -0.186559   -3.287285   -4.527646
C     -0.127617   -4.677156   -5.098982
C      0.114181   -5.562298   -4.120967
C      0.230986   -4.869079   -2.863818
C      0.074336   -3.551006   -3.070099
C      0.087271   -2.493697   -2.057950
C     -1.133502   -1.859744   -1.797091
C     -1.219637   -0.863244   -0.832610
C     -0.085247   -0.474135   -0.108415
C     -0.257626    0.555404    0.914419
S     -0.383744    2.235738    0.474761
C     -0.532243    2.771921    2.115792
C     -0.704846    4.148955    2.519418
C     -1.656331    4.575528    3.455488
N     -1.893920    5.857094    3.893816
C     -1.152429    6.900379    3.422651
C     -0.138883    6.625139    2.483687
N      0.690165    7.519890    1.921926
S      1.687119    6.662477    0.910570
N      1.113714    5.125580    1.141534
C      0.095735    5.207170    2.018927
C     -0.509782    1.680199    2.907241
O     -0.616523    1.643470    4.265238
C     -0.512553    0.279292    4.471494
C     -0.354754   -0.469249    3.298206
C     -0.356660    0.478120    2.260888
C      1.172347   -1.091312   -0.358220
C      2.355102   -0.723343    0.331649
C      3.584301   -1.328707    0.072021
C      3.669588   -2.318143   -0.891870
C      2.524951   -2.700184   -1.591231
C      1.259026   -2.112863   -1.345973
H     -1.171595   -2.841788   -4.697011
H      0.589816   -2.652967   -4.966754
H     -0.261616   -4.914159   -6.143545
H      0.208046   -6.631722   -4.234941
H      0.407658   -5.355929   -1.916422
H     -2.033758   -2.152713   -2.333563
H     -2.183271   -0.395731   -0.640331
H     -2.319885    3.843587    3.919005
H     -1.374914    7.890362    3.797950
H     -0.567664   -0.011186    5.512850
H     -0.253758   -1.543453    3.233467
H      2.335823    0.061122    1.085859
H      4.470471   -1.017686    0.618715
H      4.623232   -2.791565   -1.109238
H      2.637029   -3.470894   -2.351367
