33

Si     2.313287   -3.295523   -1.668425
C      1.256071   -3.521088   -0.155527
C      0.407402   -2.485433    0.006905
C     -0.458259   -2.276333    1.143181
C     -0.680907   -3.115397    2.271918
C     -1.565637   -2.544012    3.165161
S     -2.117560   -1.005849    2.640622
C     -1.185804   -1.101712    1.226807
C     -1.133811   -0.125354    0.180245
N     -1.796032    1.070828    0.142269
C     -1.578964    1.686778   -1.073909
C     -2.075809    2.920594   -1.576645
C     -1.778998    3.344800   -2.886072
C     -1.013334    2.415395   -3.572669
C     -0.633128    2.521211   -4.888200
O      0.054685    1.398040   -5.269167
C      0.118175    0.564559   -4.178504
C     -0.491963    1.184725   -3.133194
C     -0.753065    0.807735   -1.780080
C     -0.384134   -0.284174   -0.981983
C      0.479464   -1.434117   -1.077626
C      1.460132   -1.664862   -1.971723
H      3.748553   -3.131169   -1.336671
H      2.015336   -4.293572   -2.723123
H      1.397460   -4.360866    0.504991
H     -0.222069   -4.082398    2.433115
H     -1.915256   -2.952593    4.103199
H     -2.390833    1.426477    0.877225
H     -2.705959    3.545810   -0.947246
H     -2.151049    4.272929   -3.298611
H     -0.773861    3.260686   -5.663639
H      0.589002   -0.385911   -4.365205
H      1.800708   -1.025918   -2.763680
