38

C     -2.553031   -2.522690   -2.763175
C     -1.802491   -1.420316   -2.068240
C     -1.112346   -1.924278   -1.032125
C     -0.241157   -1.244525   -0.070227
C      0.336188   -1.983659    0.910513
C      0.080253   -3.395764    0.953171
S      0.757103   -4.429195    2.134536
C     -0.021236   -5.804979    1.468131
C     -0.787020   -5.493319    0.364215
C     -0.725770   -4.107137    0.071784
C     -1.358134   -3.367882   -0.967395
C     -2.183707   -3.734582   -1.955515
C      0.034929    0.190083   -0.086311
C     -0.533040    1.135435    0.810424
C     -0.235694    2.533613    0.740134
Si    -0.890339    3.932396    1.836061
C      0.144583    5.151737    0.821205
C      0.849629    4.568788   -0.166870
C      0.643862    3.128770   -0.216695
C      1.185274    2.190753   -1.082029
C      2.059395    2.370288   -2.119369
O      2.328908    1.161158   -2.703244
C      1.618706    0.204682   -2.027529
C      0.894533    0.789957   -1.020819
H     -2.225338   -2.626978   -3.801660
H     -3.631729   -2.343305   -2.732387
H     -1.828365   -0.385268   -2.374422
H      0.990371   -1.538315    1.654398
H      0.122290   -6.776291    1.920831
H     -1.354233   -6.227673   -0.193160
H     -2.539705   -4.733252   -2.152962
H     -1.224334    0.777566    1.573980
H     -0.412468    3.829450    3.237101
H     -2.346206    4.159781    1.660725
H      0.129691    6.204036    1.060920
H      1.499464    5.090771   -0.854728
H      2.562063    3.220068   -2.558135
H      1.743324   -0.807185   -2.387334
