21

N      0.058216   -1.647942   -0.331822
C     -0.965195   -2.582279   -0.507023
C     -0.737920   -3.872210   -0.206368
C      0.571806   -4.258654    0.294404
C      1.556257   -3.354382    0.461954
C      1.323118   -1.985270    0.145525
N      2.111971   -0.935466    0.222974
C      1.349290    0.119558   -0.213718
C      0.063973   -0.287662   -0.567681
C     -0.906449    0.604877   -1.044682
C     -0.536654    1.950103   -1.157503
C      0.744346    2.380406   -0.809003
C      1.699335    1.473315   -0.334572
H     -1.913766   -2.223347   -0.883523
H     -1.501281   -4.633608   -0.325801
H      0.736399   -5.305476    0.531813
H      2.533572   -3.638538    0.834895
H     -1.903532    0.276278   -1.317058
H     -1.262017    2.673987   -1.523967
H      1.007071    3.431215   -0.905760
H      2.696617    1.800848   -0.061937
