33

C     -1.415587   -0.143989   -5.270380
C     -1.290975   -0.113233   -3.864577
C     -1.962888   -1.257531   -3.357920
C     -2.265371   -1.885354   -2.198616
S     -3.179996   -3.309288   -2.614293
C     -3.116448   -3.000169   -4.322406
C     -2.422804   -1.859754   -4.507374
N     -2.138021   -1.256739   -5.697502
C     -1.936438   -1.518158   -0.851559
C     -2.246626   -2.162707    0.343506
C     -1.693606   -1.398056    1.390654
N     -1.700512   -1.571823    2.734879
C     -1.072670   -0.655910    3.528644
C     -0.406639    0.476347    3.042989
C      0.310833    1.566782    3.588376
N      0.600697    1.877840    4.878850
C      1.318537    3.017213    5.024560
C      1.754362    3.844645    3.991701
C      1.451701    3.516665    2.670464
C      0.716205    2.350610    2.510120
O      0.291250    1.807905    1.334454
C     -0.381499    0.682171    1.676615
C     -1.079521   -0.334209    0.778386
O     -1.208888   -0.380492   -0.562293
H     -1.039292    0.551915   -6.009331
H     -0.775026    0.649494   -3.295396
H     -3.576781   -3.654186   -5.049256
H     -2.395275   -1.558681   -6.629116
H     -2.807391   -3.079439    0.450066
H     -1.119451   -0.860390    4.595523
H      1.552995    3.270173    6.057037
H      2.326537    4.739611    4.216913
H      1.762776    4.120001    1.827745
