46

N      0.599927   -4.925475   -0.182499
C      0.279414   -3.809540   -0.118488
C     -0.195384   -2.399777   -0.019355
N      0.838683   -1.402694   -0.407424
C      1.452585   -1.300433   -1.657289
C      2.166328   -0.119654   -1.927797
C      2.864402    0.066056   -3.124510
C      2.885974   -0.946021   -4.075001
C      2.218828   -2.138656   -3.816904
C      1.520554   -2.316003   -2.614410
C     -1.484847   -2.207339   -0.854239
C     -2.481740   -1.234620   -0.213345
N     -1.770431   -0.213102    0.550987
C     -2.627029    0.944201    0.858007
C     -1.888759    2.151270    1.475799
C     -0.711726    2.670971    0.678955
C      0.537079    2.835991    1.296509
C      1.626433    3.334550    0.579414
C      1.479704    3.679386   -0.762092
C      0.243821    3.525999   -1.386230
C     -0.847029    3.030025   -0.669167
C     -1.139842   -0.786836    1.744820
C     -0.527114   -2.164682    1.477408
H      0.512630   -0.467859   -0.136818
H      2.181434    0.681243   -1.191393
H      3.394527    0.997157   -3.302623
H      3.430261   -0.813386   -5.005423
H      2.245635   -2.944482   -4.546218
H      1.034286   -3.273894   -2.472719
H     -2.004971   -3.164742   -0.993464
H     -1.244516   -1.853196   -1.864297
H     -3.073040   -0.785536   -1.021131
H     -3.189997   -1.777085    0.426820
H     -3.440820    0.645366    1.531799
H     -3.106969    1.285118   -0.068225
H     -1.565982    1.892022    2.491927
H     -2.602326    2.977089    1.593774
H      0.672398    2.576116    2.343852
H      2.589474    3.454383    1.069015
H      2.327046    4.067191   -1.320957
H      0.126880    3.793829   -2.433110
H     -1.803204    2.926624   -1.176098
H     -0.342968   -0.117728    2.088612
H     -1.856220   -0.879648    2.571222
H     -1.238119   -2.932585    1.815876
H      0.370330   -2.284720    2.099634
