41

C     -4.043053    1.130193    1.955981
C     -3.209898   -0.138892    2.053697
C     -2.474012   -0.424668    0.766587
N     -3.180976   -1.158602   -0.129028
C     -2.616811   -1.480909   -1.304222
N     -3.418270   -2.270706   -2.124919
C     -1.320166   -1.103697   -1.638411
C     -0.768799   -1.500521   -2.901054
N     -0.338685   -1.796599   -3.938614
C     -0.574858   -0.331792   -0.721120
C      0.810458    0.065786   -1.037660
C      1.891002   -0.705353   -0.591341
C      3.205679   -0.326216   -0.876515
C      3.463167    0.829777   -1.618928
O      4.718591    1.282270   -1.940325
C      5.824353    0.466885   -1.580832
C      2.385640    1.608690   -2.083901
O      2.715128    2.735245   -2.797359
C      1.681914    3.352419   -3.552285
C      1.071598    1.225334   -1.786126
C     -1.175943    0.038908    0.507788
C     -0.419258    0.840585    1.537277
H     -4.574582    1.306728    2.896406
H     -3.420241    2.006226    1.748334
H     -4.787275    1.053416    1.155828
H     -2.517462   -0.083967    2.900245
H     -3.875495   -0.983590    2.272720
H     -3.507170   -1.913574   -3.070148
H     -4.322392   -2.367067   -1.667619
H      1.717052   -1.610757   -0.012391
H      4.006308   -0.955515   -0.502697
H      6.732170    0.951167   -1.953420
H      5.915130    0.384294   -0.492867
H      5.758524   -0.520624   -2.049478
H      1.184690    2.635117   -4.214037
H      0.961582    3.848503   -2.894038
H      2.140905    4.121693   -4.180780
H      0.229949    1.825884   -2.117121
H      0.087469    0.165743    2.234204
H     -1.083052    1.501365    2.101989
H      0.324726    1.502005    1.084289
