49

C      0.214932    0.625412   -6.491471
C      0.126328    1.929018   -7.225698
C      0.102895    2.934010   -6.343952
C      0.170489    2.397190   -5.009341
C      0.236617    1.049533   -5.034779
C      0.309125    0.257911   -3.852318
S      0.290242    0.889290   -2.224451
C      0.410228   -0.666086   -1.466970
C      0.426120   -0.833877   -0.039300
S     -0.559208   -2.036076    0.708299
C     -0.045295   -1.618119    2.292004
C     -0.592468   -2.352895    3.436779
C      0.040510   -3.550593    3.810176
C     -0.432237   -4.296628    4.884196
C     -1.542107   -3.853403    5.598826
C     -2.193737   -2.658820    5.255031
C     -3.310466   -2.228932    5.991421
C     -3.971993   -1.044974    5.669339
C     -3.524780   -0.273132    4.605761
C     -2.416343   -0.686559    3.863435
C     -1.723612   -1.884760    4.163630
C      0.871775   -0.593435    2.258093
N      1.457179   -0.070535    3.374937
C      2.323994    0.924810    3.052566
C      2.594901    1.365047    1.753716
N      2.030248    0.863540    0.623861
C      1.145142   -0.137698    0.911842
C      0.450939   -1.581927   -2.460513
C      0.546722   -2.984701   -2.653995
C      0.539891   -3.213877   -4.042727
N      0.447497   -2.022399   -4.757157
C      0.399847   -1.093373   -3.751928
H     -0.657815    0.002687   -6.712036
H      1.132786    0.096080   -6.766344
H      0.088422    2.031229   -8.299532
H      0.043065    3.987490   -6.572048
H      0.165257    3.038302   -4.139538
H      0.911288   -3.904042    3.261966
H      0.064048   -5.221303    5.166150
H     -1.896459   -4.451169    6.436186
H     -3.675750   -2.818391    6.829804
H     -4.833413   -0.727170    6.250446
H     -4.033634    0.652444    4.350031
H     -2.093558   -0.053120    3.040219
H      2.823530    1.385790    3.900061
H      3.306623    2.168998    1.588199
H      0.615538   -3.753184   -1.895396
H      0.596831   -4.148029   -4.586765
H      0.423310   -1.870794   -5.755504
