33

F     -5.681897    0.015419    2.435991
C     -4.474361    0.226504    1.899565
C     -3.902361   -0.749560    1.094018
C     -2.640727   -0.532194    0.532024
C     -1.947050    0.662802    0.778767
C     -0.633859    0.892455    0.203187
C      0.471965    0.129936   -0.127144
C      1.101883   -1.159419   -0.144988
C      2.411931   -0.980253   -0.760671
C      3.257617   -2.060762   -0.913590
C      2.810008   -3.305261   -0.454163
C      1.543517   -3.461876    0.151067
C      0.670921   -2.382253    0.316345
N      1.359353    0.979547   -0.675944
C      2.603182    0.417954   -1.115151
C      3.469489    1.320479   -1.663386
C      3.032237    2.677247   -1.724973
C      1.757992    3.158163   -1.254882
C      0.921498    2.188249   -0.707807
O     -0.342758    2.260647   -0.165282
C     -2.550077    1.639219    1.588989
C     -3.810792    1.419546    2.150610
H     -4.448533   -1.669372    0.903673
H     -2.232074   -1.303119   -0.116305
H      4.240650   -1.969951   -1.367247
H      3.454915   -4.178987   -0.558443
H      1.246166   -4.451572    0.500466
H     -0.289930   -2.527513    0.798421
H      4.447154    1.031859   -2.035500
H      3.715578    3.413567   -2.161558
H      1.471347    4.201483   -1.323278
H     -2.047543    2.581911    1.798947
H     -4.279705    2.170792    2.779913
