35

C     -3.777648   -5.390005   -0.031054
C     -3.216186   -5.780946   -1.221519
S     -2.037658   -4.675175   -1.761587
C     -2.252089   -3.634703   -0.400795
C     -3.225419   -4.161306    0.438376
C     -1.459916   -2.388833   -0.252758
C     -1.646806   -1.551680    0.862438
N     -1.003528   -0.383138    1.142106
C     -0.088938   -0.031881    0.207588
C      0.168922   -0.792181   -0.929717
C     -0.500432   -1.983403   -1.195636
O      1.136128   -0.214212   -1.708045
C      1.523013    0.947501   -1.073194
C      0.774116    1.046556    0.085234
C      1.010554    2.175367    0.899112
C      0.460178    2.567978    2.075639
O      1.062827    3.751725    2.428160
C      1.979521    4.062606    1.449602
C      1.978279    3.097144    0.469646
C      2.769254    3.042338   -0.703211
C      3.744692    3.949069   -1.158861
C      4.398239    3.677837   -2.357701
C      4.063423    2.523641   -3.058447
N      3.133663    1.625029   -2.659034
C      2.498946    1.889459   -1.493732
H     -4.547038   -5.955057    0.480995
H     -3.441494   -6.665032   -1.802261
H     -3.546335   -3.697939    1.362761
H     -2.374351   -1.807398    1.629944
H     -0.265396   -2.539996   -2.093533
H     -0.292299    2.188634    2.752659
H      2.524665    4.981452    1.613964
H      3.988580    4.843134   -0.594217
H      5.156282    4.351401   -2.743411
H      4.555715    2.283692   -3.997700
