45

C      4.710653    4.634780   -2.281797
C      4.083611    3.290953   -2.053060
C      3.810856    2.849467   -0.753515
C      3.195775    1.613147   -0.541149
C      2.842439    0.801452   -1.625984
C      2.184351   -0.505691   -1.344846
O      1.684110   -0.725363   -0.248368
C      2.251685   -1.547395   -2.406474
C      1.251253   -2.363828   -2.771375
C     -0.119249   -2.381714   -2.254104
C     -0.407739   -2.781918   -0.947033
C     -1.730050   -2.823882   -0.487441
C     -2.779496   -2.483570   -1.339161
O     -4.108344   -2.474602   -1.017093
C     -4.520265   -3.185944    0.153955
C     -4.486262   -2.354264    1.417300
C     -4.622903   -0.959387    1.383069
C     -4.615826   -0.215460    2.564336
C     -4.484891   -0.857814    3.793670
C     -4.364426   -2.244861    3.843664
C     -4.370046   -2.990026    2.663032
C     -2.492498   -2.079099   -2.644753
C     -1.173193   -2.034593   -3.104176
C      3.088021    1.253528   -2.928419
C      3.703625    2.491746   -3.137932
H      5.379350    4.899603   -1.455951
H      5.310686    4.634445   -3.197895
H      3.933442    5.400383   -2.367562
H      4.071816    3.465567    0.104482
H      2.989691    1.286160    0.476630
H      3.204311   -1.619493   -2.922131
H      1.428608   -3.074216   -3.576662
H      0.397699   -3.043642   -0.263490
H     -1.896376   -3.103475    0.547303
H     -5.564330   -3.477150   -0.014155
H     -3.957318   -4.121597    0.264744
H     -4.726799   -0.441401    0.431706
H     -4.710804    0.866353    2.522619
H     -4.477671   -0.276774    4.711993
H     -4.266202   -2.746527    4.802667
H     -4.279786   -4.072377    2.721642
H     -3.303854   -1.798986   -3.311750
H     -0.980006   -1.721682   -4.126947
H      2.788743    0.671551   -3.795284
H      3.878442    2.833298   -4.156305
