26

C      2.707526    0.318937   -1.110736
C      1.563943    0.643046   -1.840145
C      0.304803    0.697995   -1.222811
C      0.193864    0.415625    0.154618
C      1.366072    0.108693    0.839672
C      2.631008    0.044803    0.256504
O      1.109557   -0.110094    2.154057
C     -0.226239    0.057324    2.333737
C     -0.867092   -0.059547    3.567332
C     -2.243704    0.156073    3.587605
C     -2.931594    0.458969    2.413063
C     -2.264185    0.555087    1.171293
C     -3.020292    0.835575   -0.033729
N     -2.841227    0.142022   -1.210249
C     -3.760131    0.661985   -1.983021
O     -4.503842    1.622410   -1.383151
N     -4.022528    1.731647   -0.079436
C     -0.861381    0.363638    1.129224
H      3.672980    0.282603   -1.610606
H      1.646441    0.857809   -2.903520
H     -0.565892    0.959633   -1.814139
H      3.507793   -0.201833    0.842911
H     -0.310720   -0.298668    4.466240
H     -2.786013    0.082981    4.527845
H     -4.009425    0.612429    2.460842
H     -3.996827    0.429623   -3.010075
