37

C      1.387964   -0.190162   -1.752907
C      0.027149   -0.249008   -1.017485
C     -0.817021   -1.421564   -1.575944
C     -0.730293    1.067164   -1.296453
C     -1.072192    1.452690   -2.609731
C     -1.749767    2.646807   -2.860838
C     -2.092329    3.483229   -1.806054
C     -1.761003    3.120527   -0.501850
C     -1.100083    1.912117   -0.237551
N     -0.732417    1.598223    1.075858
C     -0.116298    0.400201    1.455009
C      0.164925    0.165382    2.811216
C      0.825534   -0.997384    3.227394
C      1.102835   -1.247419    4.629074
C      1.226450   -2.454012    5.354642
N      1.505642   -2.248100    6.644303
O      1.577578   -0.871650    6.783611
C      1.340341   -0.285591    5.582973
C      1.215037   -1.925097    2.259052
C      0.961039   -1.686407    0.905088
C      0.298608   -0.518803    0.479485
H      1.965064   -1.113487   -1.630483
H      1.269429   -0.040777   -2.831881
H      2.005139    0.634193   -1.374164
H     -1.787879   -1.484143   -1.068543
H     -0.319105   -2.389214   -1.449560
H     -1.014767   -1.317276   -2.648453
H     -0.808484    0.825618   -3.458024
H     -2.001711    2.924624   -3.880966
H     -2.609699    4.419348   -1.996763
H     -2.020121    3.791868    0.312249
H     -1.220069    2.103822    1.802932
H     -0.151642    0.903264    3.543775
H      1.120216   -3.471271    5.005432
H      1.386924    0.793241    5.581762
H      1.740476   -2.836555    2.534769
H      1.297202   -2.427005    0.182799
