45

C      5.141769    3.130817   -0.791804
C      5.142283    4.350338    0.085525
C      3.949491    4.459346    0.684472
C      3.473358    5.460137    1.603119
C      2.212288    5.340294    2.060141
C      1.336064    4.233964    1.654540
C      1.715370    3.255061    0.791112
C      0.782572    2.209018    0.472728
C     -0.614001    2.208137    0.478443
C     -1.065498    0.924605    0.083392
C     -2.299571    0.296174   -0.106684
C     -2.309808   -1.033237   -0.519125
O     -3.422863   -1.773270   -0.743721
C     -3.008330   -3.008745   -1.128775
C     -3.869902   -4.053279   -1.449201
C     -3.282618   -5.261778   -1.826630
C     -1.890448   -5.417411   -1.880512
C     -1.327372   -6.644458   -2.263297
C      0.056992   -6.812282   -2.320523
C      0.901223   -5.755611   -1.995770
C      0.366349   -4.524593   -1.611986
C     -1.030448   -4.332933   -1.547516
C     -1.616573   -3.086600   -1.158839
C     -1.160299   -1.783525   -0.757263
C      0.073828   -1.139915   -0.564410
C      0.080851    0.188915   -0.152250
O      1.181666    0.945728    0.073102
C      3.081794    3.356571    0.274009
C      3.758549    2.579850   -0.587365
H      5.306885    3.399735   -1.839247
H      5.902580    2.413652   -0.470049
H      5.978508    5.022067    0.199920
H      4.120520    6.274807    1.904252
H      1.806358    6.068486    2.755798
H      0.352548    4.241231    2.115537
H     -1.238966    3.052923    0.731906
H     -3.233037    0.823398    0.060724
H     -4.945280   -3.928036   -1.405860
H     -3.936128   -6.094372   -2.082235
H     -1.965648   -7.486882   -2.522103
H      0.475208   -7.770236   -2.619088
H      1.979351   -5.888026   -2.040462
H      1.055272   -3.725261   -1.366008
H      1.016615   -1.647207   -0.726957
H      3.385575    1.690304   -1.071159
