32

O      5.411361   -0.703802   -0.165428
C      4.600657    0.196756    0.005513
C      5.061203    1.575160    0.264173
C      4.202057    2.579147    0.454673
C      2.741637    2.369032    0.417689
O      1.976222    3.307626    0.595713
C      2.248039    1.001477    0.161130
C      0.863855    0.765506    0.119148
C      0.357649   -0.521020   -0.122132
C     -1.089457   -0.790637   -0.170338
C     -1.781900   -1.973553   -0.391809
C     -3.178464   -1.713798   -0.340436
C     -4.331558   -2.507915   -0.487898
C     -5.592044   -1.910040   -0.373115
C     -5.710348   -0.545617   -0.116042
C     -4.577674    0.260536    0.033725
C     -3.326505   -0.355829   -0.084522
N     -2.061091    0.174876    0.013151
C      1.280586   -1.561819   -0.319669
C      2.660809   -1.330665   -0.278588
C      3.145005   -0.044074   -0.037261
H      6.134408    1.725808    0.290645
H      4.537620    3.592239    0.644782
H      0.197717    1.609229    0.279138
H     -1.339243   -2.943303   -0.575154
H     -4.247104   -3.571656   -0.688309
H     -6.486202   -2.518103   -0.486002
H     -6.698700   -0.099613   -0.030327
H     -4.673061    1.322643    0.233847
H     -1.885840    1.151063    0.196620
H      0.940597   -2.577480   -0.510258
H      3.349439   -2.159308   -0.435780
