32

C      0.926128   -2.924847    4.802786
C      0.540496   -3.584852    3.653184
N      0.238375   -2.954527    2.499140
C      0.322180   -1.607153    2.483036
C      0.022014   -0.910766    1.320975
C      0.095782    0.485623    1.260480
C     -0.217025    1.228043    0.045775
C     -0.230015    2.569461   -0.293985
C     -0.629549    2.649920   -1.653907
C     -0.840275    3.672535   -2.587502
C     -1.245423    3.322258   -3.871188
O     -1.493922    4.182204   -4.895799
C     -1.861489    3.425564   -5.963584
C     -1.852643    2.087716   -5.638571
C     -1.453226    2.008515   -4.279291
C     -1.242127    0.986897   -3.344615
C     -0.837053    1.338442   -2.061451
O     -0.588822    0.479984   -1.038096
C      0.485318    1.133192    2.425997
N      0.789945    0.506714    3.587589
C      0.705795   -0.837941    3.601788
C      1.005275   -1.534995    4.761719
H      1.159895   -3.472069    5.708854
H      0.461119   -4.668046    3.625680
H     -0.276238   -1.483669    0.445680
H      0.017296    3.398202    0.353913
H     -0.693974    4.715324   -2.326202
H     -2.093759    3.975295   -6.865162
H     -2.103266    1.270902   -6.300152
H     -1.388558   -0.055803   -3.606406
H      0.571213    2.215382    2.475480
H      1.305477   -0.982880    5.648231
