28

F     -1.868478   -2.022176   -0.490876
B     -0.407911   -1.797485   -0.545561
N     -0.016100   -1.287150    0.821363
C     -0.068410   -1.881438    2.017308
C      0.419494   -0.984553    3.028941
C      0.777988    0.183265    2.459131
C      0.503034    0.006038    1.044596
C      0.684679    0.823131   -0.016106
N      1.199419    2.092613    0.366270
C      0.303733    3.248908    0.042255
C     -0.852142    2.775532    0.979097
C     -1.782043    2.370893    1.734483
F      0.266502   -3.063981   -0.822465
N     -0.135452   -0.774315   -1.630847
C      0.363704    0.430446   -1.362556
C      0.495432    1.108553   -2.586612
C      0.051080    0.256337   -3.580673
C     -0.332728   -0.896302   -2.998946
H     -0.435723   -2.868455    2.186452
H      0.514872   -1.158653    4.065315
H      1.170672    1.045229    2.937718
H      2.044726    2.223532    0.873088
H     -0.038260    3.329359   -0.929958
H      0.714029    4.138967    0.529847
H     -2.490931    2.045119    2.307925
H      0.886907    2.083071   -2.721715
H      0.039925    0.509443   -4.656015
H     -0.732507   -1.797140   -3.462621
