35

N     -3.887090    1.122349   -0.997778
C     -2.995093    0.470093   -0.642498
C     -1.879700   -0.314968   -0.231388
C     -1.255591   -0.011131    0.925000
C     -0.090350   -0.653172    1.506479
C      0.494326   -0.318991    2.669064
C      0.057285    0.746532    3.572966
C     -0.986772    0.523577    4.477184
C     -1.407753    1.546688    5.328488
C     -0.787493    2.794649    5.279437
C      0.254146    3.021391    4.380319
C      0.676716    1.999535    3.527989
C     -1.464151   -1.451435   -1.110349
O     -1.058669   -2.516201   -0.655388
N     -1.564193   -1.207970   -2.460835
C     -1.049275   -2.145678   -3.434500
C      0.336642   -1.744725   -3.775549
C      1.577095   -2.160641   -3.337989
C      2.528699   -1.379874   -4.036408
C      1.809862   -0.536304   -4.850380
O      0.477054   -0.746800   -4.696563
H     -1.647408    0.831367    1.498032
H      0.361187   -1.476033    0.954235
H      1.373272   -0.867171    3.002162
H     -1.477152   -0.446107    4.522559
H     -2.219165    1.369782    6.029741
H     -1.115813    3.590862    5.942767
H      0.737264    3.994312    4.342594
H      1.487835    2.187924    2.828791
H     -1.755582   -0.275709   -2.805673
H     -1.695078   -2.094488   -4.316660
H     -1.078475   -3.166819   -3.041663
H      1.763367   -2.929734   -2.600348
H      3.605644   -1.423672   -3.955415
H      2.082745    0.232508   -5.559915
