41

Si     3.937799    0.383614    3.382254
C      4.547765   -0.376155    5.037330
C      3.640868   -1.238513    5.547450
C      2.454329   -1.394305    4.763668
C      1.344477   -2.169872    4.964786
S      0.211660   -1.961412    3.673953
C      1.218564   -0.820163    2.851870
C      2.367170   -0.639848    3.564759
C      0.775851   -0.231524    1.585627
C      1.040082   -0.957479    0.422175
C      0.659943   -0.444547   -0.827909
S      0.938097   -1.241725   -2.326940
C      0.184243   -0.013700   -3.170216
C     -0.297434    1.028135   -2.402765
C     -0.966340    2.053754   -3.114633
N     -1.145898    2.103183   -4.464813
C     -0.668250    1.100073   -5.228009
C     -0.700635    0.876714   -6.620007
C     -0.056011   -0.326021   -6.827697
O      0.371715   -0.856804   -5.645928
C     -0.008802    0.024391   -4.690767
C      0.011670    0.792634   -0.977690
C     -0.225080    1.555524    0.237787
C     -0.818809    2.841283    0.208490
C     -1.065251    3.575797    1.370766
C     -0.723412    3.050700    2.603304
C     -0.123777    1.795831    2.670479
C      0.148241    1.027369    1.511614
H      3.734868    1.846295    3.530634
H      4.815428   -0.037266    2.261800
H      5.505960   -0.102915    5.448593
H      3.790915   -1.776393    6.476463
H      1.122251   -2.845856    5.778327
H      1.538212   -1.923733    0.482724
H     -1.414254    2.904746   -2.616974
H     -1.140011    1.511272   -7.374556
H      0.169583   -0.912345   -7.707934
H     -1.094739    3.321536   -0.717908
H     -1.524687    4.559047    1.305982
H     -0.916113    3.612285    3.513489
H      0.130672    1.418286    3.659782
