26

O     -0.764157   -3.182957   -0.772113
N     -1.233431   -2.187179    0.088876
C     -0.567632   -1.078626   -0.048003
C      0.564620   -0.844408   -1.028818
C      1.918440   -1.074567   -0.374666
C      2.287589    0.017808    0.631510
C      1.400663    0.039304    1.877376
C      0.030309    0.640431    1.673920
C     -0.354952    1.758347    2.431226
C     -1.645901    2.284886    2.327618
C     -2.578593    1.696025    1.476231
C     -2.217900    0.585549    0.716963
C     -0.918547    0.073233    0.808805
H     -1.339880   -3.937568   -0.548770
H      0.450840   -1.503160   -1.895790
H      0.498036    0.179130   -1.418142
H      2.684882   -1.089756   -1.158983
H      1.945428   -2.055204    0.115738
H      3.319858   -0.168259    0.954122
H      2.283899    0.999252    0.141388
H      1.288749   -0.971600    2.289589
H      1.929932    0.614870    2.648062
H      0.345373    2.223468    3.122374
H     -1.927148    3.149312    2.924480
H     -3.585213    2.099800    1.406218
H     -2.943343    0.122589    0.052393
