44

C      1.072984    0.956412   -4.558765
C      0.890606    0.139601   -3.423054
C      0.474074    0.984217   -2.360649
C      0.121073    0.942295   -1.056376
S     -0.283353    2.569087   -0.586651
C      0.047364    3.241323   -2.155644
C     -0.095960    4.656292   -2.474686
N     -0.510453    5.470177   -1.501569
C     -0.618690    6.744784   -1.860155
N     -0.355715    7.242955   -3.065629
C      0.048207    6.335163   -3.949960
N      0.200033    5.032059   -3.725691
C      0.436760    2.224211   -2.959814
N      0.787048    2.289207   -4.279883
C      0.038159   -0.144123   -0.103884
C     -1.119182   -0.470032    0.648973
C     -1.194131   -1.562422    1.580678
C     -0.118650   -2.441529    1.852824
C     -0.179256   -3.534920    2.789129
S     -0.275805   -5.179307    2.288240
C     -0.330023   -5.767928    3.908236
C     -0.281859   -4.702863    4.739461
C     -0.297363   -4.568445    6.148429
C     -0.227975   -3.231073    6.556475
S     -0.138642   -2.026737    5.276259
C     -0.200491   -3.439414    4.153286
C      1.021799   -2.106301    1.113803
C      2.255716   -2.710756    1.147669
N      3.070735   -2.026593    0.272874
C      2.378725   -0.988434   -0.311887
C      1.096681   -1.016609    0.183584
H      1.384488    0.685122   -5.559250
H      1.042755   -0.931340   -3.388331
H     -0.952213    7.442983   -1.099832
H      0.275082    6.692930   -4.948781
H      0.810851    3.121720   -4.860455
H     -2.017259    0.134226    0.514441
H     -2.139966   -1.716769    2.101198
H     -0.395132   -6.824486    4.125340
H     -0.355757   -5.388859    6.853058
H     -0.223532   -2.864323    7.573892
H      2.638448   -3.551871    1.709751
H      4.042637   -2.245057    0.096235
H      2.872697   -0.330969   -1.014587
