46

C      1.389966    5.393604   -1.913956
C      2.680995    5.941328   -2.488746
C      3.708347    5.085859   -2.379809
C      3.176708    3.918059   -1.729602
C      1.806626    4.028908   -1.423150
C      1.036022    2.986483   -0.766314
C     -0.349124    3.013409   -0.419918
C     -1.198192    4.074696   -0.666774
S     -2.816308    3.803291   -0.129646
C     -2.424364    2.240964    0.455493
C     -1.100399    1.994312    0.221826
C     -0.435918    0.778244    0.584304
C     -1.056673   -0.314197    1.224335
C     -0.146826   -1.327672    1.430941
S      1.405762   -0.906564    0.855057
C      0.915806    0.661812    0.286760
C      1.648025    1.709025   -0.364001
C      3.030900    1.659915   -0.702193
C      3.957708    0.659886   -0.507891
N      5.172504    1.084121   -1.010380
C      5.054551    2.348648   -1.531462
C      3.748096    2.722687   -1.354350
C     -0.355190   -2.625977    2.047857
C      0.269090   -3.038706    3.250666
C      0.042225   -4.308973    3.872438
C     -0.828923   -5.293796    3.359018
C     -1.438891   -4.884348    2.172747
C     -2.321869   -5.681725    1.487750
S     -2.885710   -4.904317    0.062887
C     -1.940368   -3.498875    0.364360
C     -1.221324   -3.607097    1.532995
H      1.053137    6.028941   -1.089913
H      0.635522    5.321500   -2.702481
H      2.749963    6.922506   -2.937231
H      4.725921    5.222019   -2.703509
H     -1.007803    5.025495   -1.133710
H     -3.181900    1.627298    0.921140
H     -2.093525   -0.384265    1.527245
H      3.906129   -0.323091   -0.067189
H      6.024124    0.537983   -0.995866
H      5.904353    2.850461   -1.973145
H      0.959065   -2.352596    3.744151
H      0.575065   -4.524224    4.799576
H     -0.984924   -6.247735    3.845332
H     -2.669401   -6.676119    1.731929
H     -1.972490   -2.682667   -0.344056
