33

O     -0.914121    1.246025    1.002198
C      0.135825    1.497623    1.586681
N      1.381624    1.675035    0.987866
N      1.492323    1.940583   -0.353225
C      1.122562    1.036103   -1.206571
C      0.694225   -0.364267   -0.973318
C      0.359448   -1.132498   -2.019586
C     -0.088542   -2.523005   -1.873728
C     -1.008845   -2.903049   -0.887565
C     -1.438396   -4.228858   -0.791833
C     -0.959517   -5.183991   -1.686318
C     -0.056216   -4.813596   -2.680719
C      0.372819   -3.487550   -2.777950
C      0.128488    1.536936    3.071996
C     -0.558996    0.492044    3.712833
C     -0.613477    0.425912    5.105455
C      0.009809    1.407856    5.870415
C      0.677835    2.461520    5.244068
C      0.735473    2.534495    3.846084
Br     1.604631    4.052434    3.106753
H      2.062169    2.190035    1.540891
H      1.174988    1.333609   -2.268469
H      0.670931   -0.723942    0.046126
H      0.412594   -0.757148   -3.038187
H     -1.411265   -2.167474   -0.193788
H     -2.152665   -4.512479   -0.023325
H     -1.295443   -6.215017   -1.612685
H      0.313368   -5.556131   -3.383119
H      1.076994   -3.217137   -3.561381
H     -1.055607   -0.276164    3.121635
H     -1.146350   -0.388641    5.590748
H     -0.034872    1.361340    6.956274
H      1.140962    3.230548    5.859069
