46

C     -2.215140    4.679138    2.403572
C     -3.134806    4.760016    3.598719
C     -3.332787    3.565666    4.177002
C     -2.567681    2.592974    3.422430
C     -2.420644    1.241890    3.585348
N     -1.649161    0.484839    2.764859
C     -0.972228    1.041854    1.724876
C     -1.093181    2.455694    1.508601
C     -1.900173    3.215388    2.374531
C     -0.341933    2.903354    0.394533
C     -0.225990    4.179024   -0.098669
O      0.595272    4.186475   -1.189327
C      1.009266    2.903074   -1.395186
C      0.458444    2.077615   -0.446794
C      0.635594    0.689525   -0.312308
C      1.461240   -0.115819   -1.197651
C      1.622963   -1.504834   -1.050337
C      2.413505   -2.328201   -1.930895
S      4.122517   -2.126802   -2.128002
C      4.250881   -3.423121   -3.283814
C      3.013231   -3.924801   -3.471280
C      2.319451   -4.915373   -4.208793
C      0.956647   -4.818798   -3.851372
N      0.740614   -3.808508   -2.915877
C      2.008573   -3.331296   -2.740289
C      0.905791   -1.985395    0.048584
C      0.876060   -3.285086    0.499511
N      0.063783   -3.317005    1.607058
C     -0.421741   -2.057822    1.871267
C      0.086932   -1.191951    0.929842
C     -0.137199    0.216396    0.840258
H     -1.317700    5.280992    2.572217
H     -2.739271    4.996430    1.497659
H     -3.576920    5.686217    3.938812
H     -3.940215    3.344710    5.039624
H     -2.916952    0.702530    4.384745
H     -0.622499    5.146759    0.169613
H      1.673673    2.765442   -2.236613
H      1.976908    0.371770   -2.024129
H      5.198438   -3.697677   -3.723406
H      2.730720   -5.620771   -4.918501
H      0.111072   -5.399210   -4.197590
H     -0.107026   -3.489449   -2.460385
H      1.362520   -4.187394    0.152481
H     -0.138516   -4.141255    2.158069
H     -1.075801   -1.903888    2.718557
