46

C      5.137001   -1.347417   -3.055998
C      5.643514   -0.228387   -3.921411
C      4.895026    0.861852   -3.710439
C      5.008755    2.179433   -4.281133
C      4.133066    3.117744   -3.871441
C      3.081168    2.828104   -2.889664
C      2.906884    1.607160   -2.322144
C      1.823922    1.454697   -1.408778
C      1.368975    2.202353   -0.322652
C      0.250735    1.532515    0.154828
Si    -1.066485    1.595689    1.473463
C     -1.867366   -0.016431    0.804024
C     -1.103481   -0.447050   -0.310853
N     -1.325110   -1.532595   -1.062943
C     -2.400112   -2.256721   -0.679469
C     -3.240256   -1.945222    0.401318
C     -4.385786   -2.843208    0.697728
C     -5.225987   -2.600945    1.717689
C     -5.007910   -1.443252    2.540310
C     -5.730554   -1.038357    3.592913
C     -5.135907    0.219448    4.144193
C     -3.964536    0.451842    3.229723
C     -3.898185   -0.518668    2.301488
C     -2.968113   -0.778326    1.179705
C      0.015872    0.417470   -0.612132
N      0.972373    0.371443   -1.577706
C      3.853257    0.567730   -2.728350
C      3.985854   -0.707854   -2.329833
H      4.798702   -2.192731   -3.662353
H      5.907212   -1.680791   -2.354273
H      6.487539   -0.303831   -4.588891
H      5.783618    2.393326   -5.006903
H      4.178338    4.127427   -4.267554
H      2.418349    3.656760   -2.653573
H      1.825439    3.109379    0.052250
H     -1.993064    2.750995    1.346143
H     -0.549821    1.407413    2.854355
H     -2.581118   -3.137633   -1.290635
H     -4.532892   -3.712083    0.064243
H     -6.061063   -3.258934    1.930599
H     -6.604677   -1.527821    3.993743
H     -4.805925    0.081091    5.177939
H     -5.846533    1.049419    4.091078
H     -3.311708    1.296680    3.357492
H      1.039375   -0.334008   -2.300153
H      3.384321   -1.213533   -1.590467
