35

C     -3.914756    5.047376   -0.056301
C     -3.723060    3.591861   -0.403921
O     -4.648047    2.929547   -0.859757
N     -2.427630    3.165037   -0.172458
C     -1.896728    1.875786   -0.386749
C     -2.636682    0.796498   -0.872412
C     -2.036064   -0.452927   -1.056852
C     -0.687132   -0.637065   -0.756790
C      0.068024    0.434323   -0.268588
C      1.510362    0.305110    0.071083
O      2.186204    1.227788    0.498790
O      1.944151   -0.954928   -0.160270
C      3.325985   -1.156753    0.143688
C      3.657053   -2.594089   -0.162616
C      3.501367   -3.584514    0.817421
C      3.788809   -4.919140    0.526587
C      4.225759   -5.277549   -0.747343
C      4.371357   -4.303285   -1.733185
C      4.084462   -2.968088   -1.444458
C     -0.541972    1.685542   -0.086101
H     -3.586491    5.666307   -0.895369
H     -4.973532    5.236780    0.142776
H     -3.348870    5.313073    0.841272
H     -1.780061    3.856952    0.184806
H     -3.690105    0.891287   -1.119135
H     -2.627781   -1.283018   -1.436526
H     -0.242281   -1.617818   -0.908510
H      3.950235   -0.490029   -0.464081
H      3.517054   -0.944952    1.203037
H      3.151832   -3.320916    1.813243
H      3.668197   -5.679994    1.293338
H      4.447916   -6.317112   -0.973389
H      4.705060   -4.583827   -2.728822
H      4.193242   -2.219912   -2.226589
H      0.056077    2.511293    0.294376
