48

C      3.236018   -1.386225   -0.502867
C      2.161496   -1.481691    0.532947
C      1.257409   -0.505624    0.340217
C      0.109786   -0.127328    1.181910
C     -0.345105   -1.001783    2.233986
C     -1.462771   -0.744743    3.059950
C     -1.886159   -1.653753    4.111756
N     -1.975176   -2.962711    3.967670
C     -2.346816   -3.547348    5.161404
C     -2.504470   -2.684222    6.221976
S     -2.171700   -1.083092    5.714867
C     -2.118630    0.426042    2.667607
C     -3.322178    0.898960    3.136130
N     -3.633089    2.023443    2.410962
C     -2.659574    2.260441    1.466416
C     -1.672919    1.311759    1.618389
C     -0.502478    1.133112    0.848206
C      0.013260    2.013941   -0.235156
C     -0.278453    3.382102   -0.300402
C      0.121969    4.177431   -1.379493
C      0.771981    3.634116   -2.487033
C      1.067645    4.506468   -3.593140
C      1.659280    4.107981   -4.806544
C      1.871246    2.737377   -4.831774
C      2.340782    2.108273   -5.958928
S      2.371618    0.407238   -5.749252
C      1.745306    0.527605   -4.153264
C      1.608589    1.833443   -3.735952
C      1.104522    2.236903   -2.450286
C      0.877366    1.492678   -1.238862
C      1.622088    0.271501   -0.843582
C      2.806000   -0.187627   -1.290240
H      4.212586   -1.219993   -0.038703
H      3.271709   -2.282655   -1.128362
H      2.181910   -2.198259    1.338813
H      0.189484   -1.935573    2.409638
H     -2.484338   -4.620884    5.203915
H     -2.780564   -2.911929    7.241053
H     -4.009952    0.534542    3.886904
H     -4.480685    2.566093    2.517536
H     -2.801104    3.068744    0.764310
H     -0.794983    3.876219    0.517488
H     -0.129315    5.236604   -1.351931
H      0.805583    5.563140   -3.504185
H      1.851692    4.793898   -5.620255
H      2.634610    2.540366   -6.905610
H      1.513709   -0.385421   -3.624553
H      3.416962    0.246581   -2.066168
