40

C      1.673701    3.149544   -4.696428
C      0.543189    3.504443   -5.697080
C     -0.661625    3.008470   -5.320242
C     -0.407024    2.338825   -4.121275
N     -1.166885    1.643447   -3.251962
C     -0.313998    1.228293   -2.253687
C     -0.655945    0.391198   -0.997115
S     -2.186940   -0.187157   -0.603767
C     -1.619940   -0.938583    0.844772
C     -0.254320   -0.711904    0.971319
C      0.331321    0.063447   -0.093899
C      1.660851    0.528607   -0.374126
C      2.700368    0.214910    0.525131
C      4.008245    0.647913    0.290118
C      4.309642    1.400810   -0.842307
C      3.307192    1.730962   -1.755147
C      1.980650    1.308606   -1.544505
C      0.987572    1.663889   -2.495364
C      0.894771    2.375251   -3.703853
C     -2.553635   -1.673927    1.716450
C     -3.931561   -1.835868    1.477400
N     -4.867226   -2.503261    2.236086
C     -4.505299   -3.122083    3.391619
C     -3.155157   -3.056870    3.780235
N     -2.625740   -3.607404    4.884479
S     -1.012195   -3.236636    4.865116
N     -0.915543   -2.365550    3.461437
C     -2.149591   -2.314517    2.923395
H      2.106731    4.057038   -4.267344
H      2.442862    2.544371   -5.183592
H      0.719805    4.084998   -6.590738
H     -1.606343    3.108557   -5.832056
H     -2.158914    1.455034   -3.304845
H      0.331917   -1.083984    1.800575
H      2.509169   -0.370135    1.420881
H      4.795148    0.394893    0.996511
H      5.330022    1.732942   -1.016321
H      3.572665    2.319200   -2.628942
H     -4.387654   -1.399384    0.588479
H     -5.273001   -3.634427    3.955920
