24

O     -1.860725    4.692478    0.028517
C     -1.282919    3.824031    0.649610
N     -1.089299    3.739624    1.994122
C     -0.398277    2.621072    2.346833
C     -0.110276    1.905941    1.104376
C      0.567152    0.717299    0.892725
C      0.704754    0.228911   -0.422216
N      1.396853   -0.956799   -0.698579
C      1.794179   -1.831866    0.404771
C      1.183407   -1.621580   -1.984326
C      0.144563    1.021890   -1.466713
C     -0.539471    2.226596   -1.235099
C     -0.650765    2.640505    0.069710
O     -0.074765    2.261571    3.460522
H     -1.422405    4.424360    2.653100
H      0.970542    0.198829    1.755027
H      0.916788   -2.215972    0.936539
H      2.452782   -1.310216    1.107570
H      2.366271   -2.693034    0.041475
H      1.737930   -2.564903   -2.043880
H      0.123485   -1.853793   -2.136237
H      1.548586   -1.005608   -2.812846
H      0.242353    0.712726   -2.504561
H     -0.955874    2.808567   -2.050351
