45

Si     3.253693   -1.509961   -2.934658
C      1.431084   -1.332003   -3.238862
C      0.770391   -0.930425   -2.130991
C     -0.676610   -0.712776   -2.079093
C     -1.220197   -0.331638   -0.905242
C     -0.410069   -0.138868    0.301404
C     -0.976684    0.248217    1.519455
C     -2.299049    0.493356    1.807306
N     -2.372526    0.844224    3.137501
C     -1.116127    0.826425    3.698279
C     -0.231834    0.458311    2.713133
C      1.153702    0.303013    2.805734
C      1.935172    0.495272    3.940616
O      1.521831    0.870776    5.188523
C      2.624285    0.932129    5.978047
C      3.749670    0.602060    5.260820
C      3.310076    0.318409    3.941161
C      3.906924   -0.065641    2.748971
N      3.151695   -0.256271    1.632525
C      1.804392   -0.093325    1.597217
C      1.024153   -0.307598    0.380801
C      1.637196   -0.734118   -0.930023
C      2.940671   -0.988892   -1.178144
C     -1.562998   -0.830272   -3.194272
S     -2.745834   -2.123982   -3.302786
C     -3.350011   -1.605509   -4.843494
C     -2.653018   -0.515150   -5.206606
O     -2.808567    0.201198   -6.352744
C     -1.836221    1.166129   -6.155552
C     -1.132782    1.035226   -4.951055
C     -1.689763   -0.094159   -4.325489
H      3.714436   -2.915026   -3.048252
H      4.050447   -0.517355   -3.696440
H      1.013680   -1.546684   -4.209830
H     -2.285619   -0.141773   -0.829141
H     -3.199630    0.454773    1.210218
H     -3.224324    1.079790    3.630757
H     -0.981723    1.077164    4.741985
H      2.446865    1.219802    7.005088
H      4.760620    0.569768    5.641153
H      4.972560   -0.230918    2.639353
H      3.773102   -0.932655   -0.498534
H     -4.144544   -2.106930   -5.375802
H     -1.761685    1.882799   -6.963056
H     -0.337272    1.677466   -4.601064
