46

C      4.467947   -3.082144    0.703744
C      4.587273   -3.352218    2.178056
C      3.528084   -2.826910    2.806985
C      3.190143   -2.832232    4.207623
C      2.042432   -2.231476    4.579386
C      1.151293   -1.583193    3.609533
C      1.415124   -1.534190    2.278665
C      0.469757   -0.873781    1.438356
S      0.873422    0.621262    0.649374
C     -0.672470    0.770738   -0.119215
C     -0.971650    1.924450   -0.967997
C     -2.126569    2.681342   -0.746354
C     -2.428777    3.782361   -1.559220
C     -1.591999    4.166599   -2.623770
C     -0.435464    3.392278   -2.833699
C     -0.129222    2.290879   -2.022462
C     -1.912611    5.328695   -3.480769
N     -3.033751    6.010053   -3.215700
C     -3.263050    7.043018   -4.022535
N     -2.493965    7.434496   -5.033983
C     -1.409598    6.683923   -5.203146
N     -1.063363    5.628387   -4.470775
C     -1.443389   -0.298030    0.241596
C     -2.755285   -0.757175   -0.046769
C     -2.976277   -1.921213    0.605347
C     -1.750878   -2.343570    1.420864
C     -0.817611   -1.221909    1.111372
C      2.646931   -2.181350    1.837380
C      3.172448   -2.324864    0.610714
H      4.418766   -4.015932    0.135975
H      5.304850   -2.475458    0.345651
H      5.402010   -3.888780    2.638355
H      3.848899   -3.308021    4.923734
H      1.744538   -2.206410    5.623083
H      0.257338   -1.121916    4.022212
H     -2.799526    2.430391    0.070883
H     -3.335873    4.346857   -1.347432
H      0.248581    3.641777   -3.643812
H      0.772488    1.719541   -2.232610
H     -4.162708    7.619996   -3.837325
H     -0.744088    6.957504   -6.014842
H     -3.456934   -0.252585   -0.696016
H     -3.889335   -2.495919    0.562101
H     -1.363130   -3.304220    1.070747
H     -1.991982   -2.391680    2.486352
H      2.746053   -1.959540   -0.310868
