37

Si    -5.545551   -2.216559   -3.935416
C     -4.608870   -3.036157   -2.487523
C     -3.607995   -2.249111   -2.034762
C     -3.458814   -0.995602   -2.719752
C     -4.386822   -0.741472   -3.768930
C     -4.245439    0.460701   -4.388627
S     -2.937751    1.322877   -3.669473
C     -2.576214    0.047353   -2.545386
C     -1.482944    0.188632   -1.619029
C     -1.236474    1.252614   -0.777727
C     -0.056618    1.081588    0.001133
N      0.401626    1.978147    0.910780
C      1.542096    1.636206    1.550934
C      2.293833    0.465191    1.377139
C      1.789843   -0.438059    0.428894
C      2.493342   -1.621731    0.209927
N      3.630658   -1.954793    0.855685
C      4.120368   -1.098811    1.763251
C      5.291208   -1.457110    2.417107
C      5.882962   -0.637422    3.378332
C      5.292942    0.574634    3.698953
C      4.115574    0.958139    3.056136
C      3.502084    0.134811    2.076346
C      0.591876   -0.121910   -0.270463
S     -0.268682   -1.005954   -1.474783
H     -5.366666   -2.986330   -5.191318
H     -6.951790   -1.923437   -3.563185
H     -4.898058   -4.007381   -2.119438
H     -2.968849   -2.536934   -1.208220
H     -4.813041    0.894456   -5.200793
H     -1.873249    2.125338   -0.707469
H      1.853619    2.396263    2.263501
H      2.162164   -2.365382   -0.509913
H      5.758999   -2.407732    2.169044
H      6.800261   -0.950842    3.869664
H      5.744570    1.222411    4.446217
H      3.684502    1.915706    3.335488
