34

C      1.257280   -2.845267    1.385351
C      0.411773   -1.605588    1.154065
N      1.191089   -0.350767    1.118703
C      1.668771    0.133348    2.432412
C      0.913449    1.397330    2.804454
S      2.195890   -0.009476   -0.206766
O      3.154329   -1.096797   -0.288768
O      2.683423    1.350405   -0.105928
C      1.144766   -0.116302   -1.627370
C      1.479114   -1.044557   -2.629475
C      0.689202   -1.149581   -3.765320
C     -0.424851   -0.328534   -3.896520
C     -0.755436    0.599252   -2.892679
C     -1.881787    1.421285   -3.037123
C     -2.210015    2.335278   -2.046381
C     -1.398117    2.393136   -0.935558
N     -0.310777    1.612303   -0.763363
C      0.032506    0.723805   -1.723883
H      0.609029   -3.707758    1.572228
H      1.865850   -3.085978    0.509721
H      1.926000   -2.733110    2.243746
H     -0.165279   -1.714415    0.230305
H     -0.334097   -1.523464    1.954548
H      1.510657   -0.622304    3.209458
H      2.746592    0.328219    2.411724
H      1.079509    2.191345    2.069474
H     -0.164317    1.209426    2.854397
H      1.242562    1.763643    3.781688
H      2.357607   -1.679379   -2.530141
H      0.942787   -1.861669   -4.546825
H     -1.037254   -0.413631   -4.792356
H     -2.507701    1.355995   -3.923985
H     -3.073228    2.983692   -2.140411
H     -1.598934    3.088222   -0.125299
