26

O     -0.623498   -1.479761    1.381522
C     -0.375087   -0.499484    0.683719
C     -1.490863    0.225652    0.019350
C     -2.470365    0.712273    0.784332
O     -3.580339    1.395504    0.262696
C     -3.714245    1.580004   -1.094245
O     -4.665616    2.201514   -1.555255
C     -2.646046    0.990337   -1.959404
Br    -2.805942    1.163927   -3.813032
C     -1.602828    0.352562   -1.408144
N      0.904932   -0.023000    0.473456
C      2.031036   -0.765461    1.043571
C      3.325043   -0.470957    0.280602
O      3.675521    0.920349    0.242535
C      2.568181    1.810295    0.427728
C      1.252161    1.266183   -0.138895
H     -2.528634    0.645885    1.863201
H     -0.829455   -0.100491   -2.021317
H      2.124098   -0.445972    2.088280
H      1.815993   -1.839189    1.033181
H      4.163757   -1.010900    0.731063
H      3.235342   -0.811536   -0.757510
H      2.823304    2.759589   -0.053653
H      2.470775    2.003550    1.502489
H      0.448771    1.991461    0.018301
H      1.359528    1.082634   -1.213839
