36

Cl     5.720836    1.465364    4.118480
C      4.474763    1.925138    3.024415
C      4.785856    2.185666    1.691638
C      3.774386    2.555637    0.802063
C      2.446298    2.671220    1.241825
C      1.346960    3.053555    0.278344
S      0.741118    1.632570   -0.677180
C     -0.335291    0.896272    0.462391
N     -0.977786    1.540509    1.411391
C     -1.712597    0.588538    2.065960
C     -1.505954   -0.651501    1.512305
N     -0.632294   -0.442545    0.470213
C     -0.096206   -1.495432   -0.377069
C     -1.098172   -1.948513   -1.410148
C     -1.856522   -3.111441   -1.205396
C     -2.789633   -3.526845   -2.156933
C     -2.976913   -2.785155   -3.321205
C     -2.232357   -1.627368   -3.535402
C     -1.298240   -1.210029   -2.585822
C      2.150504    2.401273    2.586591
C      3.161515    2.030536    3.475762
H      5.809923    2.100627    1.338655
H      4.027004    2.750432   -0.238308
H      1.742788    3.787992   -0.433166
H      0.527228    3.561760    0.798470
H     -2.349430    0.844519    2.902823
H     -1.900448   -1.628523    1.752925
H      0.828324   -1.159637   -0.855822
H      0.185947   -2.325729    0.282465
H     -1.728583   -3.703115   -0.301503
H     -3.373119   -4.428514   -1.988958
H     -3.705298   -3.107473   -4.060723
H     -2.380972   -1.045845   -4.441809
H     -0.730305   -0.300980   -2.772196
H      1.124400    2.471855    2.945575
H      2.915423    1.823692    4.513563
