35

C     -5.439974   -1.024803   -1.335216
O     -4.743498    0.202937   -1.507935
C     -3.561244    0.341380   -0.835867
C     -2.980725   -0.601899    0.010957
C     -1.757120   -0.333709    0.642500
C     -1.103080    0.878331    0.428888
O      0.087630    1.267704    0.972307
C      0.779597    0.357466    1.809826
C      1.462524   -0.829886    1.112912
O      1.104788   -1.983277    1.368148
N      2.500662   -0.563256    0.234714
C      3.001608    0.773211   -0.100956
C      3.793824    0.758148   -1.412405
O      4.907021   -0.144063   -1.392592
C      4.689182   -1.326907   -0.609291
C      3.212673   -1.674994   -0.398515
C     -1.688558    1.822001   -0.416888
C     -2.907870    1.555737   -1.044447
H     -5.736962   -1.166539   -0.290811
H     -4.845407   -1.870507   -1.696325
H     -6.352654   -0.978778   -1.937167
H     -3.449633   -1.561007    0.205273
H     -1.351258   -1.103316    1.291605
H      1.567404    0.923926    2.321262
H      0.129455   -0.009857    2.613823
H      2.178696    1.485186   -0.176246
H      3.650331    1.078938    0.727800
H      4.183011    1.757695   -1.630292
H      3.144974    0.470491   -2.248044
H      5.179348   -1.169118    0.358453
H      5.206811   -2.152571   -1.107599
H      2.723079   -1.850760   -1.363459
H      3.120622   -2.586225    0.200754
H     -1.194770    2.774449   -0.591231
H     -3.350148    2.301081   -1.700512
