35

C      4.340162   -1.383599   -0.778539
C      4.774593   -0.349022    0.024409
N      4.023063    0.728118    0.340835
C      2.782871    0.817010   -0.143369
N      2.053184    1.885737    0.179533
C      0.791424    1.987870   -0.303351
C      0.179574    1.045771   -1.118660
C     -1.186778    1.212490   -1.597661
C     -1.440375    1.766812   -2.867872
C     -2.739906    1.931809   -3.337408
C     -3.832649    1.549479   -2.560456
C     -3.576647    0.996387   -1.300042
N     -4.462604    0.543115   -0.351550
C     -3.801865    0.067842    0.752283
C     -4.299379   -0.479437    1.928171
N     -3.435916   -0.881256    2.885628
C     -2.111228   -0.735867    2.671459
C     -1.550083   -0.199785    1.521552
C     -2.436574    0.221807    0.515635
C     -2.287415    0.813962   -0.790334
C      0.945308   -0.067678   -1.458034
C      2.255697   -0.194061   -0.971485
C      3.053211   -1.303593   -1.286474
H      4.984992   -2.226065   -1.000785
H      5.773009   -0.352869    0.453363
H      0.263724    2.887630    0.006006
H     -0.608221    2.077408   -3.497838
H     -2.905694    2.365244   -4.321311
H     -4.845790    1.679825   -2.928561
H     -5.466706    0.557426   -0.456814
H     -5.355158   -0.607858    2.132526
H     -1.475970   -1.076269    3.485226
H     -0.474586   -0.117638    1.426847
H      0.518631   -0.840010   -2.094489
H      2.675526   -2.100287   -1.921891
