33

C     -1.275606   -3.125613   -4.055259
O     -0.046977   -3.774864   -3.756607
C      0.675682   -3.288044   -2.701816
C      1.885773   -3.944253   -2.475962
C      2.717116   -3.550431   -1.429658
C      2.343550   -2.491827   -0.599932
C      1.140357   -1.818159   -0.815373
N      0.687836   -0.750752   -0.009686
C      1.402599   -0.053494    0.938938
O      2.609211   -0.165585    1.135829
N      0.636987    0.840200    1.678581
C      1.318886    1.730181    2.620134
C      0.479031    2.980433    2.894803
O     -0.837070    2.705887    3.399087
C     -1.305484    1.382090    3.117139
C     -0.827361    0.848360    1.762803
C      0.305144   -2.229090   -1.867705
H     -1.714070   -3.623159   -4.925667
H     -1.113730   -2.075128   -4.318633
H     -1.983655   -3.221125   -3.225499
H      2.182183   -4.769262   -3.119013
H      3.657155   -4.067751   -1.256467
H      3.011020   -2.221481    0.212715
H     -0.183974   -0.329632   -0.284993
H      1.470026    1.160382    3.544593
H      2.302036    2.011744    2.228464
H      0.356343    3.559658    1.972245
H      0.983268    3.625337    3.621307
H     -0.968642    0.726493    3.928795
H     -2.399334    1.405102    3.148831
H     -1.181009    1.499999    0.955849
H     -1.220391   -0.160006    1.600430
H     -0.632847   -1.709627   -2.025635
