39

Si    -2.713031    1.749393   -3.205938
C     -3.392402    3.383724   -3.950518
C     -3.032220    4.451588   -3.204912
C     -2.243007    4.140477   -2.053040
C     -1.702449    4.953339   -1.093816
S     -0.822379    4.022848    0.068093
C     -1.181418    2.525305   -0.718103
C     -1.938496    2.772711   -1.825415
C     -0.679115    1.284083   -0.167299
C      0.677606    0.883024   -0.244581
C      1.095410   -0.364828    0.293304
N      2.352442   -0.966737    0.336324
C      2.233408   -2.171155    0.961013
C      0.916868   -2.375827    1.334543
Si     0.788410   -4.044612    2.197641
C      2.645559   -4.299602    1.941803
C      3.680399   -5.193934    2.176297
C      4.796135   -4.572168    1.634687
O      4.484415   -3.352199    1.087741
C      3.156431   -3.197705    1.284661
C      0.229759   -1.267251    0.921865
C     -1.131692   -0.890334    1.016328
C     -2.210386   -1.513775    1.556398
O     -3.293307   -0.687834    1.376771
C     -2.851249    0.439518    0.725714
C     -1.500922    0.350103    0.471217
H     -1.733970    1.126076   -4.131160
H     -3.832197    0.880683   -2.764246
H     -3.980769    3.374822   -4.853644
H     -3.312982    5.469040   -3.451528
H     -1.760249    6.028333   -0.998091
H      1.404431    1.535071   -0.724483
H      3.207579   -0.573336   -0.032280
H      0.413583   -3.936024    3.631071
H     -0.036121   -5.027598    1.448365
H      3.661366   -6.158362    2.663627
H      5.838206   -4.851037    1.559633
H     -2.407527   -2.444902    2.065283
H     -3.611900    1.183371    0.532371
