41

C      5.032197    5.878251   -0.553502
C      4.970366    4.791570   -1.628810
C      4.039872    3.856289   -1.330793
C      3.410647    4.188459   -0.101217
C      3.987076    5.386835    0.388496
C      3.453102    5.777277    1.584169
S      2.246732    4.654472    2.096638
C      2.439163    3.643877    0.694700
C      1.620186    2.453547    0.555283
N      1.476896    1.631102    1.639541
C      0.718836    0.492459    1.566657
C      0.006031   -0.005314    0.466544
C     -0.785515   -1.233669    0.491705
C     -0.683685   -2.215507   -0.499891
C     -1.449814   -3.382227   -0.428637
C     -2.311748   -3.553089    0.646386
N     -2.430165   -2.631772    1.627789
C     -1.680785   -1.508045    1.525231
C     -3.157922   -4.733609    0.824914
C     -3.877949   -5.147791    1.936938
C     -4.545692   -6.353580    1.619633
C     -4.234700   -6.654102    0.315453
N     -3.405911   -5.669823   -0.157663
C      0.128211    0.827619   -0.679768
N     -0.446676    0.624753   -1.880368
S     -0.015444    1.892497   -2.851974
N      0.941113    2.757453   -1.817650
C      0.956949    2.097051   -0.644503
H      4.776254    6.855378   -0.972273
H      6.020360    5.907452   -0.086226
H      5.596347    4.788015   -2.508562
H      3.806116    2.990164   -1.933430
H      3.694263    6.639069    2.190351
H      0.713167   -0.062206    2.507052
H     -0.003196   -2.087311   -1.339398
H     -1.345653   -4.131027   -1.203972
H     -1.841237   -0.802825    2.337959
H     -3.908211   -4.621211    2.883159
H     -5.186536   -6.932539    2.271709
H     -4.536084   -7.476984   -0.318630
H     -3.045417   -5.633780   -1.100334
